data_4107178_[Full_Structure]
_audit_creation_method         'generated by CrystalMaker X for macOS'
_cell_length_a                  10.561500(16)
_cell_length_b                  19.679000(30)
_cell_length_c                  22.733000(30)
_cell_angle_alpha               90.000000(0)
_cell_angle_beta                99.964000(80)
_cell_angle_gamma               90.000000(0)

_symmetry_space_group_name_H-M     'P 21/c'

loop_
_symmetry_equiv_pos_as_xyz
'+x,+y,+z'
'-x,1/2+y,1/2-z'
'-x,-y,-z'
'+x,1/2-y,1/2+z'

loop_
_atom_site_label
_atom_site_type_symbol
_atom_site_occupancy
_atom_site_fract_x
_atom_site_fract_y
_atom_site_fract_z
_atom_site_U_iso_or_equiv
 C1  C 1.0  0.84730000(20000)  0.73101000(13000)  0.85359000(11000)  0.04593
 C2  C 1.0  0.98120000(20000)  0.72098000(13000)  0.86815000(11000)  0.04333
 C3  C 1.0  1.06510000(20000)  0.66419000(13000)  0.87398000(10000)  0.04117
 C4  C 1.0  1.04020000(20000)  0.59317000(13000)  0.86607000(10000)  0.04093
 C5  C 1.0  0.93160000(20000)  0.55027000(12000)  0.85237000(10000)  0.03993
 C6  C 1.0  0.79610000(20000)  0.55838000(12000)  0.83922000(10000)  0.03957
 C7  C 1.0  0.71870000(20000)  0.61750000(13000)  0.83472000(10000)  0.04100
 C8  C 1.0  0.73850000(20000)  0.68804000(13000)  0.84033000(11000)  0.04520
 C9  C 1.0  1.26920000(40000)  0.77660000(20000)  0.90360000(30000)  0.13600
 C10  C 1.0  1.30650000(40000)  0.64080000(20000)  0.96720000(17000)  0.08200
 C11  C 1.0  1.33640000(30000)  0.65030000(30000)  0.84130000(20000)  0.11417
 C12  C 1.0  0.60570000(30000)  0.47339000(18000)  0.74869000(15000)  0.07260
 C13  C 1.0  0.57610000(40000)  0.47820000(20000)  0.87720000(20000)  0.10367
 C14  C 1.0  0.79690000(40000)  0.40053000(18000)  0.84370000(30000)  0.10457
 C15  C 1.0  0.85310000(20000)  0.57268000(11000)  0.67337000(10000)  0.03543
 C16  C 1.0  0.75140000(20000)  0.62003000(12000)  0.66876000(10000)  0.03520
 C17  C 1.0  0.73810000(20000)  0.69144000(11000)  0.67685000(10000)  0.03640
 C18  C 1.0  0.83150000(20000)  0.74352000(11000)  0.69099000(11000)  0.04163
 C19  C 1.0  0.96640000(20000)  0.74663000(12000)  0.70412000(11000)  0.04427
 C20  C 1.0  1.06750000(20000)  0.69911000(13000)  0.70888000(11000)  0.04363
 C21  C 1.0  1.07700000(20000)  0.62843000(13000)  0.70297000(11000)  0.04157
 C22  C 1.0  0.98930000(20000)  0.57367000(11000)  0.68807000(10000)  0.03827
 C23  C 1.0  0.50710000(40000)  0.73720000(30000)  0.58560000(20000)  0.12800
 C24  C 1.0  0.55340000(40000)  0.80220000(20000)  0.70890000(30000)  0.13333
 C25  C 1.0  0.45700000(30000)  0.65893000(19000)  0.69048000(17000)  0.07227
 C26  C 0.64999998  1.18030000(110000)  0.49500000(50000)  0.63040000(50000)  0.16367
 C27  C 0.64999998  0.96360000(90000)  0.41790000(40000)  0.66850000(50000)  0.12700
 C28  C 0.64999998  1.17730000(80000)  0.46870000(40000)  0.76120000(40000)  0.10933
 C29  C 1.0  0.62900000(40000)  0.82560000(30000)  0.93340000(20000)  0.10000
 C30  C 1.0  0.79800000(40000)  0.85907000(17000)  1.00945000(16000)  0.07443
 C31  C 1.0  0.91090000(40000)  0.83260000(20000)  1.04928000(16000)  0.07907
 C32  C 1.0  1.10570000(40000)  0.77440000(30000)  1.05180000(20000)  0.11733
 C33  C 0.64999998  0.70780000(80000)  0.63700000(40000)  0.99520000(50000)  0.12133
 C34  C 0.64999998  0.72300000(90000)  0.57530000(50000)  1.03400000(40000)  0.11367
 C35  C 1.0  0.84080000(60000)  0.54520000(30000)  1.02020000(30000)  0.13700
 C36  C 1.0  0.92260000(50000)  0.60200000(30000)  1.00660000(20000)  0.11233
 C37  C 0.5  0.41740000(50000)  0.97620000(40000)  1.00440000(30000)  0.13100
 C38  C 0.5  0.45830000(80000)  0.99380000(50000)  0.95150000(30000)  0.12800
 C39  C 0.5  0.57260000(80000)  1.02930000(40000)  0.95320000(30000)  0.13100
 C40  C 0.5  0.64600000(60000)  1.04720000(40000)  1.00780000(40000)  0.15900
 C41  C 0.5  0.60510000(60000)  1.02970000(30000)  1.06070000(30000)  0.10000
 C42  C 0.5  0.49080000(60000)  0.99410000(30000)  1.05900000(30000)  0.07760
 C43  C 0.5  0.29800000(200000)  0.94080000(130000)  1.00260000(70000)  0.26900
 C26'  C 0.34999999  1.03170000(180000)  0.46180000(70000)  0.59850000(60000)  0.12600
 C27'  C 0.34999999  0.98400000(200000)  0.42220000(60000)  0.71570000(100000)  0.15833
 C28'  C 0.34999999  1.23560000(110000)  0.48800000(70000)  0.70660000(130000)  0.15367
 C33'  C 0.34999999  0.79500000(200000)  0.65160000(70000)  1.05400000(80000)  0.14400
 C34'  C 0.34999999  0.79110000(190000)  0.58560000(90000)  1.07020000(90000)  0.13433
 Dy1  Dy 1.0  0.90043700(800)  0.64696700(500)  0.77005400(400)  0.02955
 H10A  H 1.0  1.29130000(0)  0.59170000(0)  0.96340000(0)  0.12800
 H10B  H 1.0  1.26380000(0)  0.65890000(0)  0.99890000(0)  0.12800
 H10C  H 1.0  1.39910000(0)  0.64940000(0)  0.97720000(0)  0.12800
 H11A  H 1.0  1.32250000(0)  0.60120000(0)  0.83650000(0)  0.17100
 H11B  H 1.0  1.42770000(0)  0.65920000(0)  0.85600000(0)  0.17100
 H11C  H 1.0  1.31020000(0)  0.67290000(0)  0.80280000(0)  0.17100
 H12A  H 1.0  0.66560000(0)  0.47270000(0)  0.72030000(0)  0.11300
 H12B  H 1.0  0.54900000(0)  0.51300000(0)  0.74080000(0)  0.11300
 H12C  H 1.0  0.55390000(0)  0.43180000(0)  0.74420000(0)  0.11300
 H13A  H 1.0  0.52420000(0)  0.43670000(0)  0.87070000(0)  0.15100
 H13B  H 1.0  0.52010000(0)  0.51800000(0)  0.86890000(0)  0.15100
 H13C  H 1.0  0.62060000(0)  0.47970000(0)  0.91880000(0)  0.15100
 H14A  H 1.0  0.86220000(0)  0.39850000(0)  0.81790000(0)  0.16700
 H14B  H 1.0  0.74170000(0)  0.36030000(0)  0.83690000(0)  0.16700
 H14C  H 1.0  0.83920000(0)  0.40180000(0)  0.88560000(0)  0.16700
 H15A  H 1.0  0.82190000(0)  0.52800000(0)  0.66410000(0)  0.04200
 H16A  H 1.0  0.67020000(0)  0.59870000(0)  0.65720000(0)  0.04300
 H18A  H 1.0  0.79320000(0)  0.78710000(0)  0.69180000(0)  0.05000
 H19A  H 1.0  0.99690000(0)  0.79180000(0)  0.71160000(0)  0.05200
 H1A  H 1.0  0.82460000(0)  0.77780000(0)  0.85240000(0)  0.05400
 H20A  H 1.0  1.14940000(0)  0.72010000(0)  0.71850000(0)  0.05200
 H21A  H 1.0  1.16380000(0)  0.61330000(0)  0.71090000(0)  0.04900
 H23A  H 1.0  0.51390000(0)  0.69530000(0)  0.56310000(0)  0.19500
 H23B  H 1.0  0.55840000(0)  0.77300000(0)  0.57110000(0)  0.19500
 H23C  H 1.0  0.41690000(0)  0.75150000(0)  0.58020000(0)  0.19500
 H24A  H 1.0  0.46340000(0)  0.81690000(0)  0.70250000(0)  0.20500
 H24B  H 1.0  0.60630000(0)  0.83780000(0)  0.69510000(0)  0.20500
 H24C  H 1.0  0.58310000(0)  0.79390000(0)  0.75160000(0)  0.20500
 H25A  H 1.0  0.46170000(0)  0.61610000(0)  0.66890000(0)  0.10600
 H25B  H 1.0  0.36880000(0)  0.67640000(0)  0.68200000(0)  0.10600
 H25C  H 1.0  0.48190000(0)  0.65100000(0)  0.73350000(0)  0.10600
 H26A  H 0.64999998  1.26340000(0)  0.51340000(0)  0.64970000(0)  0.22900
 H26B  H 0.64999998  1.14270000(0)  0.52500000(0)  0.59760000(0)  0.22900
 H26C  H 0.64999998  1.19280000(0)  0.44960000(0)  0.61470000(0)  0.22900
 H26D  H 0.34999999  0.96700000(0)  0.49250000(0)  0.57670000(0)  0.18800
 H26E  H 0.34999999  0.99890000(0)  0.41510000(0)  0.59530000(0)  0.18800
 H26F  H 0.34999999  1.11060000(0)  0.46440000(0)  0.58140000(0)  0.18800
 H27A  H 0.64999998  0.93640000(0)  0.40150000(0)  0.70500000(0)  0.19900
 H27B  H 0.64999998  1.00850000(0)  0.38140000(0)  0.65110000(0)  0.19900
 H27C  H 0.64999998  0.88790000(0)  0.43190000(0)  0.63970000(0)  0.19900
 H27D  H 0.34999999  0.99220000(0)  0.42780000(0)  0.75910000(0)  0.21600
 H27E  H 0.34999999  1.02040000(0)  0.37820000(0)  0.70700000(0)  0.21600
 H27F  H 0.34999999  0.89330000(0)  0.42400000(0)  0.69730000(0)  0.21600
 H28A  H 0.64999998  1.15910000(0)  0.50080000(0)  0.79160000(0)  0.17400
 H28B  H 0.64999998  1.26790000(0)  0.47230000(0)  0.75720000(0)  0.17400
 H28C  H 0.64999998  1.15920000(0)  0.42240000(0)  0.77320000(0)  0.17400
 H28D  H 0.34999999  1.25910000(0)  0.50130000(0)  0.74870000(0)  0.23500
 H28E  H 0.34999999  1.27430000(0)  0.51990000(0)  0.68170000(0)  0.23500
 H28F  H 0.34999999  1.26730000(0)  0.44200000(0)  0.70130000(0)  0.23500
 H29A  H 1.0  0.59670000(0)  0.78700000(0)  0.90790000(0)  0.15000
 H29B  H 1.0  0.64560000(0)  0.86400000(0)  0.90840000(0)  0.15000
 H29C  H 1.0  0.56470000(0)  0.83870000(0)  0.95760000(0)  0.15000
 H2A  H 1.0  1.02660000(0)  0.76260000(0)  0.87600000(0)  0.05200
 H30A  H 1.0  0.73440000(0)  0.87600000(0)  1.03320000(0)  0.08800
 H30B  H 1.0  0.82340000(0)  0.89740000(0)  0.98580000(0)  0.08800
 H31A  H 1.0  0.95910000(0)  0.87060000(0)  1.07130000(0)  0.09400
 H31B  H 1.0  0.88340000(0)  0.80140000(0)  1.07880000(0)  0.09400
 H32A  H 1.0  1.15850000(0)  0.75060000(0)  1.02690000(0)  0.17800
 H32B  H 1.0  1.08410000(0)  0.74320000(0)  1.08220000(0)  0.17800
 H32C  H 1.0  1.15360000(0)  0.81330000(0)  1.07130000(0)  0.17800
 H33A  H 0.64999998  0.65670000(0)  0.67240000(0)  1.01140000(0)  0.13800
 H33B  H 0.64999998  0.66630000(0)  0.62580000(0)  0.95390000(0)  0.13800
 H33C  H 0.34999999  0.85050000(0)  0.67710000(0)  1.08610000(0)  0.15900
 H33D  H 0.34999999  0.70740000(0)  0.67110000(0)  1.04920000(0)  0.15900
 H34A  H 0.64999998  0.73260000(0)  0.58760000(0)  1.07670000(0)  0.13300
 H34B  H 0.64999998  0.64900000(0)  0.54410000(0)  1.02350000(0)  0.13300
 H34C  H 0.34999999  0.70210000(0)  0.57200000(0)  1.07310000(0)  0.15700
 H34D  H 0.34999999  0.84680000(0)  0.57770000(0)  1.10930000(0)  0.15700
 H35A  H 0.64999998  0.82080000(0)  0.51440000(0)  0.98540000(0)  0.16600
 H35B  H 0.64999998  0.88530000(0)  0.51880000(0)  1.05480000(0)  0.16600
 H35C  H 0.34999999  0.89050000(0)  0.50420000(0)  1.03520000(0)  0.16600
 H35D  H 0.34999999  0.77190000(0)  0.53340000(0)  0.98640000(0)  0.16600
 H36A  H 1.0  0.99420000(0)  0.60940000(0)  1.04040000(0)  0.13300
 H36B  H 1.0  0.95940000(0)  0.59170000(0)  0.97040000(0)  0.13300
 H38A  H 0.5  0.40810000(0)  0.98150000(0)  0.91420000(0)  0.15300
 H39A  H 0.5  0.60060000(0)  1.04130000(0)  0.91710000(0)  0.15700
 H40A  H 0.5  0.72420000(0)  1.07150000(0)  1.00890000(0)  0.19100
 H41A  H 0.5  0.65530000(0)  1.04190000(0)  1.09800000(0)  0.11900
 H42A  H 0.5  0.46280000(0)  0.98210000(0)  1.09510000(0)  0.09300
 H43A  H 0.5  0.25900000(0)  0.93170000(0)  0.96090000(0)  0.40400
 H43B  H 0.5  0.23890000(0)  0.96880000(0)  1.02130000(0)  0.40400
 H43C  H 0.5  0.31320000(0)  0.89770000(0)  1.02430000(0)  0.40400
 H4A  H 1.0  1.11790000(0)  0.56780000(0)  0.87150000(0)  0.05000
 H5A  H 1.0  0.95570000(0)  0.50380000(0)  0.85180000(0)  0.04900
 H7A  H 1.0  0.62980000(0)  0.60670000(0)  0.82550000(0)  0.04900
 H8A  H 1.0  0.66010000(0)  0.71280000(0)  0.83360000(0)  0.05300
 H9A  H 1.0  1.23480000(0)  0.79950000(0)  0.86590000(0)  0.21400
 H9B  H 1.0  1.36170000(0)  0.78530000(0)  0.91400000(0)  0.21400
 H9C  H 1.0  1.22600000(0)  0.79410000(0)  0.93530000(0)  0.21400
 Li1  Li 1.0  0.87420000(50000)  0.73880000(30000)  0.95720000(20000)  0.06100
 O1  O 1.0  0.74340000(20000)  0.80694000(12000)  0.97100000(10000)  0.07467
 O2  O 1.0  0.99100000(20000)  0.79765000(13000)  1.01547000(9000)  0.07180
 O3  O 1.0  0.84520000(30000)  0.65966000(12000)  0.99740000(14000)  0.09237
 Si1  Si 1.0  1.24058000(7000)  0.68319000(5000)  0.89523000(4000)  0.05593
 Si2  Si 1.0  0.69750000(7000)  0.47850000(4000)  0.82602000(4000)  0.04880
 Si3  Si 1.0  0.56751000(7000)  0.72180000(4000)  0.66588000(4000)  0.05327
 Si4  Si 1.0  1.07034000(9000)  0.48960000(4000)  0.68597000(5000)  0.06507

loop_
_atom_site_aniso_label
_atom_site_aniso_U_11
_atom_site_aniso_U_22
_atom_site_aniso_U_33
_atom_site_aniso_U_23
_atom_site_aniso_U_13
_atom_site_aniso_U_12
C1   0.04690 0.04690 0.04400 -0.01400 0.01330 0.00110
C2   0.04540 0.04640 0.03820 -0.01110 0.00800 -0.00870
C3   0.03570 0.05410 0.03370 0.00050 0.00070 -0.00750
C4   0.03260 0.05050 0.03970 0.00830 -0.00020 0.00050
C5   0.03900 0.04170 0.03910 0.00930 0.00230 -0.00090
C6   0.03860 0.04420 0.03590 0.00600 0.00660 -0.00680
C7   0.03030 0.05250 0.04020 0.00080 0.00990 -0.00460
C8   0.03780 0.05180 0.04600 -0.00740 0.01600 0.00420
C9   0.05700 0.08100 0.27000 0.01700 -0.02900 -0.02900
C10   0.05700 0.12300 0.06600 -0.00500 -0.01940 -0.00020
C11   0.03650 0.22800 0.07800 -0.01900 0.01350 -0.00900
C12   0.08300 0.06800 0.06680 0.01280 -0.01160 -0.03690
C13   0.10700 0.10800 0.09600 0.00400 0.04500 -0.05700
C14   0.07500 0.05070 0.18800 0.02600 -0.03100 -0.00820
C15   0.03950 0.03200 0.03480 -0.00440 0.00690 -0.00160
C16   0.03350 0.03870 0.03340 0.00120 0.00350 -0.00180
C17   0.03640 0.03660 0.03620 0.00680 0.00430 0.00430
C18   0.04860 0.03060 0.04570 0.00700 0.01020 0.00340
C19   0.05020 0.03390 0.04870 0.00280 0.01300 -0.00980
C20   0.03590 0.05030 0.04470 0.00170 0.01260 -0.01050
C21   0.03040 0.05380 0.04050 -0.00170 0.01220 0.00150
C22   0.03870 0.03880 0.03730 -0.00370 0.01070 0.00500
C23   0.05600 0.23300 0.09500 0.09900 -0.00400 0.01200
C24   0.07900 0.08200 0.23900 -0.04200 -0.00100 0.04600
C25   0.03880 0.09600 0.08200 0.01990 0.02340 0.01280
C26   0.16900 0.12700 0.19500 -0.02900 0.12700 0.04600
C27   0.10800 0.04600 0.22700 -0.04900 -0.01800 0.01600
C28   0.11300 0.08900 0.12600 -0.00900 -0.03400 0.06600
C29   0.07400 0.12300 0.10300 -0.03700 0.01400 0.02300
C30   0.10100 0.06030 0.06200 -0.01500 0.02630 0.00630
C31   0.10300 0.08200 0.05220 -0.02460 0.01910 0.00600
C32   0.07600 0.18900 0.08700 -0.04900 0.00500 0.02000
C33   0.09500 0.10400 0.16500 0.03100 0.07700 0.01800
C34   0.11900 0.12300 0.09900 0.03500 0.04500 -0.01900
C35   0.15200 0.09800 0.16100 0.04600 0.02000 0.01300
C36   0.12100 0.12000 0.09600 0.03900 0.02900 0.02200
C26'   0.18700 0.10200 0.08900 -0.04300 0.03200 0.05300
C27'   0.22000 0.02500 0.23000 0.02600 0.15700 0.02800
C28'   0.05200 0.06900 0.34000 0.02200 0.00000 0.02200
C33'   0.19700 0.10600 0.12900 0.01600 0.12300 0.00800
C34'   0.14700 0.11600 0.14000 0.07400 0.05300 0.01700
Dy1   0.02884 0.03103 0.02877 -0.00018 0.00635 0.00002
Li1   0.07000 0.06400 0.04900 -0.01100 0.01700 0.00300
O1   0.07950 0.07480 0.06970 -0.02610 0.01380 0.01460
O2   0.07220 0.09160 0.05160 -0.02360 0.01910 -0.00320
O3   0.11300 0.06210 0.10200 0.00350 0.05540 0.00680
Si1   0.03580 0.06630 0.06570 0.00100 -0.00450 -0.01180
Si2   0.04420 0.04700 0.05520 0.01410 0.00110 -0.01310
Si3   0.03880 0.05460 0.06640 0.01670 0.00250 0.01330
Si4   0.06150 0.04800 0.08570 -0.01090 0.02460 0.01780
