data_HoW10a
_audit_creation_method         'generated by CrystalMaker X for macOS'
_cell_length_a                  12.721700(5)
_cell_length_b                  13.049400(5)
_cell_length_c                  20.470700(7)
_cell_angle_alpha               82.807000(30)
_cell_angle_beta                74.529000(30)
_cell_angle_gamma               88.854000(30)

_symmetry_space_group_name_H-M     'P -1'

loop_
_symmetry_equiv_pos_as_xyz
'+x,+y,+z'
'-x,-y,-z'

loop_
_atom_site_label
_atom_site_type_symbol
_atom_site_occupancy
_atom_site_fract_x
_atom_site_fract_y
_atom_site_fract_z
_atom_site_U_iso_or_equiv
 Ho1  Ho 1.0  0.87632000(5000)  0.28154000(5000)  0.76320000(3000)  0.01803
 Na1  Na 1.0  0.69930000(30000)  -0.06980000(30000)  0.62133000(18000)  0.02440
 Na2  Na 1.0  0.55930000(30000)  -0.04820000(30000)  0.79300000(18000)  0.02233
 Na3  Na 1.0  0.31940000(30000)  -0.04670000(30000)  0.93819000(18000)  0.02373
 Na4  Na 1.0  0.29530000(30000)  0.21790000(30000)  0.98958000(18000)  0.02433
 Na5  Na 1.0  0.13350000(30000)  0.50970000(30000)  0.94183000(18000)  0.02200
 Na6  Na 1.0  0.18610000(30000)  0.60260000(30000)  0.76717000(18000)  0.02280
 Na7  Na 1.0  0.24690000(30000)  0.63560000(30000)  0.58758000(18000)  0.02393
 Na8  Na 1.0  0.46880000(30000)  0.70640000(30000)  0.43666000(18000)  0.02307
 Na9  Na 1.0  0.06560000(30000)  0.60340000(30000)  0.50946000(18000)  0.02303
 O1  O 1.0  0.45590000(50000)  0.64920000(50000)  0.84570000(30000)  0.02200
 O2  O 1.0  0.61350000(50000)  0.54010000(50000)  0.90490000(30000)  0.01900
 O3  O 1.0  0.48200000(50000)  0.43020000(50000)  0.85870000(30000)  0.01900
 O4  O 1.0  0.55360000(50000)  0.53230000(40000)  0.73650000(30000)  0.01667
 O5  O 1.0  0.68290000(50000)  0.64120000(50000)  0.78240000(30000)  0.02167
 O6  O 1.0  0.69090000(50000)  0.44140000(40000)  0.79810000(30000)  0.01933
 O7  O 1.0  0.82320000(50000)  0.55520000(50000)  0.84610000(30000)  0.02133
 O8  O 1.0  0.75840000(50000)  0.45090000(50000)  0.98170000(30000)  0.02233
 O9  O 1.0  0.61950000(50000)  0.33650000(50000)  0.92300000(30000)  0.01867
 O10  O 1.0  0.47210000(50000)  0.21250000(50000)  0.88250000(30000)  0.02267
 O11  O 1.0  0.55810000(50000)  0.32910000(50000)  0.75230000(30000)  0.01967
 O12  O 1.0  0.62860000(50000)  0.43040000(50000)  0.61620000(30000)  0.02133
 O13  O 1.0  0.76450000(50000)  0.54710000(40000)  0.67270000(30000)  0.01767
 O14  O 1.0  0.90580000(50000)  0.67710000(50000)  0.71610000(30000)  0.02233
 O15  O 1.0  0.83570000(50000)  0.34740000(50000)  0.86850000(30000)  0.01967
 O16  O 1.0  0.69500000(50000)  0.22720000(50000)  0.81710000(30000)  0.01967
 O17  O 1.0  0.77260000(50000)  0.34050000(40000)  0.68690000(30000)  0.01833
 O18  O 1.0  0.91290000(50000)  0.46090000(50000)  0.73530000(30000)  0.01833
 O19  O 1.0  1.04820000(50000)  0.29990000(50000)  0.78630000(30000)  0.01867
 O20  O 1.0  0.89660000(50000)  0.13360000(50000)  0.83860000(30000)  0.01900
 O21  O 1.0  0.85640000(50000)  0.13460000(40000)  0.70850000(30000)  0.01733
 O22  O 1.0  1.00860000(50000)  0.30270000(40000)  0.65630000(30000)  0.01800
 O23  O 1.0  1.20900000(50000)  0.28030000(50000)  0.67340000(30000)  0.01967
 O24  O 1.0  1.25850000(50000)  0.28460000(50000)  0.80160000(30000)  0.02233
 O25  O 1.0  1.10350000(50000)  0.11970000(50000)  0.84590000(30000)  0.01967
 O26  O 1.0  0.95530000(50000)  -0.04900000(50000)  0.90580000(30000)  0.02133
 O27  O 1.0  0.92360000(50000)  -0.03590000(40000)  0.77190000(30000)  0.01567
 O28  O 1.0  0.87770000(50000)  -0.04170000(50000)  0.64170000(30000)  0.02333
 O29  O 1.0  1.02920000(50000)  0.12630000(50000)  0.59900000(30000)  0.01933
 O30  O 1.0  1.17860000(50000)  0.29510000(40000)  0.53920000(30000)  0.01967
 O31  O 1.0  1.06870000(50000)  0.12250000(50000)  0.72210000(30000)  0.02070
 O32  O 1.0  1.26710000(50000)  0.10690000(40000)  0.73480000(30000)  0.01767
 O33  O 1.0  1.12580000(50000)  -0.04750000(40000)  0.78420000(30000)  0.01833
 O34  O 1.0  1.09050000(50000)  -0.04400000(50000)  0.66300000(30000)  0.02000
 O35  O 1.0  1.23090000(50000)  0.10970000(50000)  0.61370000(30000)  0.01900
 O36  O 1.0  1.30980000(50000)  -0.07760000(50000)  0.67090000(30000)  0.02267
 O37  O 1.0  0.53060000(50000)  -0.04930000(50000)  0.58580000(30000)  0.02633
 O38  O 1.0  0.77910000(50000)  0.00420000(50000)  0.50220000(30000)  0.02500
 O39  O 1.0  0.73550000(50000)  -0.24550000(50000)  0.59370000(30000)  0.02433
 O40  O 1.0  0.64850000(50000)  0.06800000(50000)  0.68980000(30000)  0.02367
 O41  O 1.0  0.69990000(50000)  -0.15600000(50000)  0.73770000(30000)  0.02533
 O42  O 1.0  0.45110000(60000)  -0.15320000(60000)  0.75230000(40000)  0.03833
 O43  O 1.0  0.47210000(50000)  -0.15720000(50000)  0.89740000(30000)  0.02467
 O44  O 1.0  0.68390000(50000)  0.01200000(50000)  0.84760000(30000)  0.02267
 O45  O 1.0  0.18580000(60000)  -0.15240000(50000)  0.90860000(40000)  0.03300
 O46  O 1.0  0.39520000(50000)  0.05130000(50000)  0.82900000(30000)  0.02300
 O47  O 1.0  0.27410000(50000)  -0.14800000(50000)  1.03940000(30000)  0.02533
 O48  O 1.0  0.39170000(50000)  0.05940000(50000)  1.01160000(40000)  0.02533
 O49  O 1.0  0.18550000(50000)  0.09200000(50000)  0.96120000(30000)  0.02400
 O50  O 1.0  0.16330000(50000)  0.26260000(50000)  1.09130000(30000)  0.02333
 O51  O 1.0  0.43010000(50000)  0.29770000(50000)  1.02430000(30000)  0.02400
 O52  O 1.0  0.26430000(50000)  0.37290000(50000)  0.91840000(30000)  0.02000
 O53  O 1.0  0.02010000(50000)  0.38160000(50000)  1.02140000(30000)  0.02467
 O54  O 1.0  0.05360000(50000)  0.48540000(50000)  0.84810000(30000)  0.02333
 O55  O 1.0  0.23220000(50000)  0.64880000(50000)  0.86410000(30000)  0.02233
 O56  O 1.0  0.34210000(50000)  0.48110000(50000)  0.74000000(30000)  0.02400
 O57  O 1.0  0.05520000(60000)  0.74160000(50000)  0.78390000(40000)  0.02900
 O58  O 1.0  0.29800000(50000)  0.70940000(50000)  0.67330000(30000)  0.02400
 O59  O 1.0  0.13780000(50000)  0.50930000(50000)  0.67970000(30000)  0.02133
 O60  O 1.0  0.22930000(50000)  0.51730000(50000)  0.51050000(30000)  0.02167
 O61  O 1.0  0.07010000(50000)  0.70490000(50000)  0.59330000(30000)  0.02233
 O62  O 1.0  -0.04600000(50000)  0.47930000(50000)  0.58190000(30000)  0.02033
 O63  O 1.0  0.14580000(50000)  0.74150000(50000)  0.42950000(30000)  0.02033
 O64  O 1.0  0.44240000(50000)  0.59950000(50000)  0.54160000(30000)  0.02600
 O65  O 1.0  0.30110000(50000)  0.77960000(50000)  0.49080000(30000)  0.02467
 O66  O 1.0  0.55420000(50000)  0.85530000(50000)  0.46380000(40000)  0.02900
 O67  O 1.0  0.61320000(50000)  0.59660000(50000)  0.38820000(30000)  0.02400
 O68  O 1.0  0.51990000(50000)  0.79800000(50000)  0.32340000(30000)  0.02433
 O69  O 1.0  0.98300000(50000)  0.11140000(50000)  0.47340000(30000)  0.02333
 O70  O 1.0  0.51990000(60000)  0.68220000(50000)  0.64120000(40000)  0.03333
 O71  O 1.0  0.95520000(50000)  0.23650000(50000)  0.95450000(40000)  0.03000
 W1  W 1.0  0.55693000(3000)  0.55713000(3000)  0.82779000(2000)  0.01742
 W2  W 1.0  0.73672000(3000)  0.43935000(3000)  0.90323000(2000)  0.01716
 W3  W 1.0  0.57542000(3000)  0.30197000(3000)  0.84392000(2000)  0.01676
 W4  W 1.0  0.66261000(3000)  0.43026000(3000)  0.69316000(2000)  0.01692
 W5  W 1.0  0.82251000(3000)  0.56833000(3000)  0.75058000(2000)  0.01694
 W6  W 1.0  1.16697000(3000)  0.22252000(3000)  0.77001000(2000)  0.01702
 W7  W 1.0  0.99305000(3000)  0.03085000(3000)  0.82959000(2000)  0.01698
 W8  W 1.0  0.94962000(3000)  0.03461000(3000)  0.68010000(2000)  0.01682
 W9  W 1.0  1.12304000(3000)  0.22748000(3000)  0.61928000(2000)  0.01686
 W10  W 1.0  1.20267000(3000)  0.00851000(3000)  0.69381000(2000)  0.01730

loop_
_atom_site_aniso_label
_atom_site_aniso_U_11
_atom_site_aniso_U_22
_atom_site_aniso_U_33
_atom_site_aniso_U_23
_atom_site_aniso_U_13
_atom_site_aniso_U_12
Ho1   0.01790 0.01810 0.01810 -0.00230 -0.00490 0.00050
Na1   0.02390 0.02500 0.02430 -0.00450 -0.00840 0.00070
Na2   0.02060 0.02290 0.02350 -0.00410 -0.00470 0.00110
Na3   0.02220 0.02500 0.02400 -0.00130 -0.00600 0.00120
Na4   0.02750 0.02110 0.02440 -0.00230 -0.00990 0.00010
Na5   0.02220 0.02020 0.02360 -0.00400 -0.00580 0.00090
Na6   0.02460 0.02150 0.02230 -0.00250 -0.00550 -0.00060
Na7   0.02240 0.02600 0.02340 -0.00310 -0.00600 -0.00250
Na8   0.02270 0.02380 0.02270 -0.00020 -0.00660 -0.00060
Na9   0.02420 0.02200 0.02290 -0.00280 -0.00580 -0.00360
O1   0.01800 0.01900 0.02900 -0.00600 -0.00400 0.00200
O2   0.01700 0.02200 0.01800 -0.00300 -0.00800 0.00600
O3   0.01500 0.01900 0.02300 -0.00700 -0.00300 0.00300
O4   0.01600 0.01700 0.01700 0.00000 -0.00300 0.00100
O5   0.02300 0.01600 0.02600 -0.00300 -0.01000 0.00400
O6   0.01700 0.01500 0.02600 -0.00300 -0.01000 -0.00200
O7   0.02400 0.02100 0.01900 -0.00600 -0.00600 -0.00100
O8   0.02600 0.02300 0.01800 -0.00800 -0.00500 0.00100
O9   0.01900 0.01900 0.01800 -0.00400 -0.00500 -0.00200
O10   0.02300 0.02300 0.02200 -0.00100 -0.01100 0.00200
O11   0.02200 0.01600 0.02100 -0.00100 -0.00900 -0.00100
O12   0.02300 0.01800 0.02300 -0.00100 -0.00800 -0.00300
O13   0.01900 0.01400 0.02000 -0.00300 -0.00400 0.00000
O14   0.02600 0.02100 0.02000 -0.00200 -0.00700 0.00200
O15   0.01900 0.01700 0.02300 -0.00300 -0.00600 0.00200
O16   0.01700 0.02200 0.02000 -0.00400 -0.00400 -0.00100
O17   0.01900 0.01600 0.02000 -0.00500 -0.00400 0.00200
O18   0.01500 0.01900 0.02100 -0.00300 -0.00200 0.00000
O19   0.01500 0.02000 0.02100 0.00000 -0.00100 0.00100
O20   0.02000 0.01800 0.01900 -0.00400 0.00100 0.00200
O21   0.01800 0.01600 0.01800 -0.00400 -0.00500 0.00200
O22   0.01500 0.01500 0.02400 0.00100 -0.00500 0.00300
O23   0.01900 0.01700 0.02300 -0.00700 -0.00700 0.00100
O24   0.02200 0.02100 0.02400 -0.00400 -0.00800 -0.00200
O25   0.02000 0.02200 0.01700 -0.00300 -0.01000 -0.00200
O26   0.02300 0.01800 0.02300 0.00000 -0.00700 -0.00400
O27   0.01600 0.01100 0.02000 -0.00100 -0.00300 -0.00300
O28   0.02300 0.02300 0.02400 -0.00400 -0.00600 0.00200
O29   0.01900 0.02000 0.01900 -0.00400 -0.00800 -0.00300
O30   0.02300 0.01200 0.02400 -0.00200 -0.00500 -0.00100
O31   0.02070 0.02070 0.02070 -0.00250 -0.00550 0.00030
O32   0.01600 0.01700 0.02000 -0.00400 -0.00500 0.00300
O33   0.02300 0.01300 0.01900 -0.00100 -0.00300 0.00200
O34   0.01800 0.01900 0.02300 -0.00300 -0.00400 0.00200
O35   0.01800 0.01800 0.02100 -0.00300 -0.00500 0.00300
O36   0.02100 0.01900 0.02800 -0.00400 -0.00600 0.00300
O37   0.01600 0.03600 0.02700 -0.00500 -0.00300 -0.00100
O38   0.02800 0.02300 0.02400 -0.00300 -0.00400 0.00200
O39   0.02600 0.02400 0.02300 -0.00500 -0.00400 0.00100
O40   0.02300 0.02000 0.02800 0.00100 -0.00400 -0.00100
O41   0.02600 0.02000 0.03000 -0.00100 -0.00300 0.00300
O42   0.03900 0.02900 0.04700 -0.00600 -0.02800 -0.00100
O43   0.03200 0.01300 0.02900 -0.00200 -0.00900 0.00000
O44   0.02200 0.02500 0.02100 -0.00200 -0.00400 -0.00400
O45   0.03000 0.02500 0.04400 -0.00700 -0.01900 0.00600
O46   0.02200 0.02000 0.02700 -0.00300 -0.00900 0.00200
O47   0.03300 0.01900 0.02400 0.00000 -0.00600 0.00100
O48   0.02300 0.01900 0.03400 0.00000 -0.00700 -0.00200
O49   0.02200 0.02400 0.02600 -0.00400 -0.00800 -0.00100
O50   0.02400 0.02200 0.02400 0.00000 -0.00700 -0.00600
O51   0.02500 0.02400 0.02300 -0.00800 -0.00600 0.00400
O52   0.01700 0.02100 0.02200 -0.00200 -0.00100 0.00000
O53   0.02700 0.01900 0.02800 -0.00400 -0.00600 0.00000
O54   0.02400 0.01900 0.02700 -0.00400 -0.00700 -0.00200
O55   0.02000 0.02200 0.02500 -0.00300 -0.00900 0.00300
O56   0.02300 0.02200 0.02700 -0.00100 -0.01300 0.00000
O57   0.03200 0.02400 0.03100 -0.00100 -0.01700 0.00000
O58   0.02400 0.02200 0.02600 -0.00600 -0.00900 -0.00100
O59   0.02100 0.01900 0.02400 -0.00400 -0.00300 0.00200
O60   0.02000 0.02000 0.02500 -0.00600 -0.00900 -0.00100
O61   0.02000 0.02000 0.02700 -0.00600 -0.00900 -0.00200
O62   0.02100 0.02000 0.02000 -0.00100 0.00000 -0.00100
O63   0.02000 0.01600 0.02500 -0.00700 -0.00600 0.00200
O64   0.02900 0.02200 0.02700 -0.00300 -0.00600 0.00400
O65   0.02400 0.02200 0.02800 -0.00500 -0.00900 0.00000
O66   0.02400 0.03300 0.03000 -0.01000 -0.00500 -0.00300
O67   0.02200 0.01900 0.03100 -0.00300 -0.00700 0.00300
O68   0.02600 0.02100 0.02600 0.00000 -0.00900 0.00100
O69   0.02800 0.01900 0.02300 -0.00700 -0.00600 0.00400
O70   0.03300 0.02500 0.04200 0.00500 -0.01200 0.00600
O71   0.02300 0.03200 0.03500 -0.01200 -0.01100 0.00600
W1   0.01654 0.01600 0.01972 -0.00337 -0.00471 0.00125
W2   0.01705 0.01690 0.01754 -0.00322 -0.00462 0.00077
W3   0.01639 0.01620 0.01769 -0.00255 -0.00396 0.00032
W4   0.01679 0.01670 0.01726 -0.00257 -0.00494 0.00079
W5   0.01648 0.01586 0.01848 -0.00247 -0.00472 0.00054
W6   0.01671 0.01622 0.01814 -0.00284 -0.00511 0.00052
W7   0.01729 0.01602 0.01762 -0.00195 -0.00440 0.00076
W8   0.01636 0.01610 0.01800 -0.00315 -0.00439 0.00081
W9   0.01697 0.01639 0.01721 -0.00242 -0.00407 0.00063
W10   0.01661 0.01640 0.01888 -0.00292 -0.00460 0.00136
