 
loop_
 _atom_type_symbol
 _atom_type_description
 _atom_type_scat_dispersion_real
 _atom_type_scat_dispersion_imag
 _atom_type_scat_source
 'F'  'F'   0.0171   0.0103
 'International Tables Vol C Tables 4.2.6.8 and 6.1.1.4'
 'Na'  'Na'   0.0362   0.0249
 'International Tables Vol C Tables 4.2.6.8 and 6.1.1.4'
 'Ca'  'Ca'   0.2262   0.3064
 'International Tables Vol C Tables 4.2.6.8 and 6.1.1.4'
 'Ni'  'Ni'   0.3393   1.1124
 'International Tables Vol C Tables 4.2.6.8 and 6.1.1.4'
 
_space_group_crystal_system       cubic
_space_group_IT_number            227
_space_group_name_H-M_alt         'F d -3 m'
_space_group_name_Hall            '-F 4vw 2vw 3'
 

loop_
 _space_group_symop_operation_xyz
 'x, y, z'
 'y, z, x'
 'z, x, y'
 'x+1/4, y+1/4, -z'
 'y+1/4, z+1/4, -x'
 'z+1/4, x+1/4, -y'
 'y+1/2, -z+1/4, -x+3/4'
 'z+1/2, -x+1/4, -y+3/4'
 '-z+1/4, x+1/2, -y+3/4'
 '-x+1/4, y+1/2, -z+3/4'
 '-y+1/4, z+1/2, -x+3/4'
 'x+1/2, -y+1/4, -z+3/4'
 'y, x, z'
 'z, y, x'
 'x, z, y'
 'y+1/4, x+1/4, -z'
 'z+1/4, y+1/4, -x'
 'x+1/4, z+1/4, -y'
 '-z+1/4, y+1/2, -x+3/4'
 '-x+1/4, z+1/2, -y+3/4'
 'x+1/2, -z+1/4, -y+3/4'
 'y+1/2, -x+1/4, -z+3/4'
 'z+1/2, -y+1/4, -x+3/4'
 '-y+1/4, x+1/2, -z+3/4'
 'x, y+1/2, z+1/2'
 'y, z+1/2, x+1/2'
 'z, x+1/2, y+1/2'
 'x+1/4, y+3/4, -z+1/2'
 'y+1/4, z+3/4, -x+1/2'
 'z+1/4, x+3/4, -y+1/2'
 'y+1/2, -z+3/4, -x+5/4'
 'z+1/2, -x+3/4, -y+5/4'
 '-z+1/4, x+1, -y+5/4'
 '-x+1/4, y+1, -z+5/4'
 '-y+1/4, z+1, -x+5/4'
 'x+1/2, -y+3/4, -z+5/4'
 'y, x+1/2, z+1/2'
 'z, y+1/2, x+1/2'
 'x, z+1/2, y+1/2'
 'y+1/4, x+3/4, -z+1/2'
 'z+1/4, y+3/4, -x+1/2'
 'x+1/4, z+3/4, -y+1/2'
 '-z+1/4, y+1, -x+5/4'
 '-x+1/4, z+1, -y+5/4'
 'x+1/2, -z+3/4, -y+5/4'
 'y+1/2, -x+3/4, -z+5/4'
 'z+1/2, -y+3/4, -x+5/4'
 '-y+1/4, x+1, -z+5/4'
 'x+1/2, y, z+1/2'
 'y+1/2, z, x+1/2'
 'z+1/2, x, y+1/2'
 'x+3/4, y+1/4, -z+1/2'
 'y+3/4, z+1/4, -x+1/2'
 'z+3/4, x+1/4, -y+1/2'
 'y+1, -z+1/4, -x+5/4'
 'z+1, -x+1/4, -y+5/4'
 '-z+3/4, x+1/2, -y+5/4'
 '-x+3/4, y+1/2, -z+5/4'
 '-y+3/4, z+1/2, -x+5/4'
 'x+1, -y+1/4, -z+5/4'
 'y+1/2, x, z+1/2'
 'z+1/2, y, x+1/2'
 'x+1/2, z, y+1/2'
 'y+3/4, x+1/4, -z+1/2'
 'z+3/4, y+1/4, -x+1/2'
 'x+3/4, z+1/4, -y+1/2'
 '-z+3/4, y+1/2, -x+5/4'
 '-x+3/4, z+1/2, -y+5/4'
 'x+1, -z+1/4, -y+5/4'
 'y+1, -x+1/4, -z+5/4'
 'z+1, -y+1/4, -x+5/4'
 '-y+3/4, x+1/2, -z+5/4'
 'x+1/2, y+1/2, z'
 'y+1/2, z+1/2, x'
 'z+1/2, x+1/2, y'
 'x+3/4, y+3/4, -z'
 'y+3/4, z+3/4, -x'
 'z+3/4, x+3/4, -y'
 'y+1, -z+3/4, -x+3/4'
 'z+1, -x+3/4, -y+3/4'
 '-z+3/4, x+1, -y+3/4'
 '-x+3/4, y+1, -z+3/4'
 '-y+3/4, z+1, -x+3/4'
 'x+1, -y+3/4, -z+3/4'
 'y+1/2, x+1/2, z'
 'z+1/2, y+1/2, x'
 'x+1/2, z+1/2, y'
 'y+3/4, x+3/4, -z'
 'z+3/4, y+3/4, -x'
 'x+3/4, z+3/4, -y'
 '-z+3/4, y+1, -x+3/4'
 '-x+3/4, z+1, -y+3/4'
 'x+1, -z+3/4, -y+3/4'
 'y+1, -x+3/4, -z+3/4'
 'z+1, -y+3/4, -x+3/4'
 '-y+3/4, x+1, -z+3/4'
 '-x, -y, -z'
 '-y, -z, -x'
 '-z, -x, -y'
 '-x-1/4, -y-1/4, z'
 '-y-1/4, -z-1/4, x'
 '-z-1/4, -x-1/4, y'
 '-y-1/2, z-1/4, x-3/4'
 '-z-1/2, x-1/4, y-3/4'
 'z-1/4, -x-1/2, y-3/4'
 'x-1/4, -y-1/2, z-3/4'
 'y-1/4, -z-1/2, x-3/4'
 '-x-1/2, y-1/4, z-3/4'
 '-y, -x, -z'
 '-z, -y, -x'
 '-x, -z, -y'
 '-y-1/4, -x-1/4, z'
 '-z-1/4, -y-1/4, x'
 '-x-1/4, -z-1/4, y'
 'z-1/4, -y-1/2, x-3/4'
 'x-1/4, -z-1/2, y-3/4'
 '-x-1/2, z-1/4, y-3/4'
 '-y-1/2, x-1/4, z-3/4'
 '-z-1/2, y-1/4, x-3/4'
 'y-1/4, -x-1/2, z-3/4'
 '-x, -y+1/2, -z+1/2'
 '-y, -z+1/2, -x+1/2'
 '-z, -x+1/2, -y+1/2'
 '-x-1/4, -y+1/4, z+1/2'
 '-y-1/4, -z+1/4, x+1/2'
 '-z-1/4, -x+1/4, y+1/2'
 '-y-1/2, z+1/4, x-1/4'
 '-z-1/2, x+1/4, y-1/4'
 'z-1/4, -x, y-1/4'
 'x-1/4, -y, z-1/4'
 'y-1/4, -z, x-1/4'
 '-x-1/2, y+1/4, z-1/4'
 '-y, -x+1/2, -z+1/2'
 '-z, -y+1/2, -x+1/2'
 '-x, -z+1/2, -y+1/2'
 '-y-1/4, -x+1/4, z+1/2'
 '-z-1/4, -y+1/4, x+1/2'
 '-x-1/4, -z+1/4, y+1/2'
 'z-1/4, -y, x-1/4'
 'x-1/4, -z, y-1/4'
 '-x-1/2, z+1/4, y-1/4'
 '-y-1/2, x+1/4, z-1/4'
 '-z-1/2, y+1/4, x-1/4'
 'y-1/4, -x, z-1/4'
 '-x+1/2, -y, -z+1/2'
 '-y+1/2, -z, -x+1/2'
 '-z+1/2, -x, -y+1/2'
 '-x+1/4, -y-1/4, z+1/2'
 '-y+1/4, -z-1/4, x+1/2'
 '-z+1/4, -x-1/4, y+1/2'
 '-y, z-1/4, x-1/4'
 '-z, x-1/4, y-1/4'
 'z+1/4, -x-1/2, y-1/4'
 'x+1/4, -y-1/2, z-1/4'
 'y+1/4, -z-1/2, x-1/4'
 '-x, y-1/4, z-1/4'
 '-y+1/2, -x, -z+1/2'
 '-z+1/2, -y, -x+1/2'
 '-x+1/2, -z, -y+1/2'
 '-y+1/4, -x-1/4, z+1/2'
 '-z+1/4, -y-1/4, x+1/2'
 '-x+1/4, -z-1/4, y+1/2'
 'z+1/4, -y-1/2, x-1/4'
 'x+1/4, -z-1/2, y-1/4'
 '-x, z-1/4, y-1/4'
 '-y, x-1/4, z-1/4'
 '-z, y-1/4, x-1/4'
 'y+1/4, -x-1/2, z-1/4'
 '-x+1/2, -y+1/2, -z'
 '-y+1/2, -z+1/2, -x'
 '-z+1/2, -x+1/2, -y'
 '-x+1/4, -y+1/4, z'
 '-y+1/4, -z+1/4, x'
 '-z+1/4, -x+1/4, y'
 '-y, z+1/4, x-3/4'
 '-z, x+1/4, y-3/4'
 'z+1/4, -x, y-3/4'
 'x+1/4, -y, z-3/4'
 'y+1/4, -z, x-3/4'
 '-x, y+1/4, z-3/4'
 '-y+1/2, -x+1/2, -z'
 '-z+1/2, -y+1/2, -x'
 '-x+1/2, -z+1/2, -y'
 '-y+1/4, -x+1/4, z'
 '-z+1/4, -y+1/4, x'
 '-x+1/4, -z+1/4, y'
 'z+1/4, -y, x-3/4'
 'x+1/4, -z, y-3/4'
 '-x, z+1/4, y-3/4'
 '-y, x+1/4, z-3/4'
 '-z, y+1/4, x-3/4'
 'y+1/4, -x, z-3/4'
 
_cell_length_a                    10.280(2)
_cell_length_b                    10.280(2)
_cell_length_c                    10.280(2)
_cell_angle_alpha                 90
_cell_angle_beta                  90
_cell_angle_gamma                 90
_cell_volume                      1086.3(7)
_cell_formula_units_Z             8

 
loop_
 _atom_site_label
 _atom_site_type_symbol
 _atom_site_fract_x
 _atom_site_fract_y
 _atom_site_fract_z
 _atom_site_U_iso_or_equiv
 _atom_site_adp_type
 _atom_site_occupancy
 _atom_site_site_symmetry_order  
 _atom_site_calc_flag
 _atom_site_refinement_flags_posn
 _atom_site_refinement_flags_adp
 _atom_site_refinement_flags_occupancy
 _atom_site_disorder_assembly
 _atom_site_disorder_group
Ni1 Ni2+ 0.0000 0.0000 0.0000 0.0024(3) Uani 1 12 d S T P . .
Ca2 Ca1+ 0.5000 0.5000 0.5000 0.0107(5) Uani 0.4999 12 d S T P . .
Na2 Na2+ 0.5000 0.5000 0.5000 0.0107(5) Uani 0.4999 12 d S T P . .
F3 F1- 0.3750 0.3750 0.3750 0.0052(8) Uani 1 24 d S T P . .
F4 F1- 0.33031(18) 0.1250 0.1250 0.0075(4) Uani 1 4 d S T P . .
