data_./shelxl
_audit_creation_method         'generated by CrystalMaker X for macOS'
_cell_length_a                  20.208000(4)
_cell_length_b                  20.535000(2)
_cell_length_c                  27.294000(5)
_cell_angle_alpha               90.000000(0)
_cell_angle_beta               113.805100(7)
_cell_angle_gamma               90.000000(0)

_symmetry_space_group_name_H-M     'P 21/c'

loop_
_symmetry_equiv_pos_as_xyz
'+x,+y,+z'
'-x,1/2+y,1/2-z'
'-x,-y,-z'
'+x,1/2-y,1/2+z'

loop_
_atom_site_label
_atom_site_type_symbol
_atom_site_occupancy
_atom_site_fract_x
_atom_site_fract_y
_atom_site_fract_z
_atom_site_U_iso_or_equiv
 Er1  Er 1.0  0.19834000(6000)  0.18047000(6000)  0.31685000(4000)  0.01920
 K1  K 1.0  0.02560000(30000)  0.40040000(30000)  0.14130000(20000)  0.02200
 K2  K 1.0  0.20650000(40000)  0.40180000(30000)  0.09540000(20000)  0.02833
 K3  K 1.0  0.32680000(40000)  0.26760000(30000)  0.03030000(30000)  0.03233
 K4  K 1.0  0.27160000(40000)  0.64110000(30000)  0.21100000(30000)  0.03567
 K5  K 1.0  0.37110000(40000)  0.46850000(30000)  0.05350000(30000)  0.03700
 K6  K 1.0  0.22120000(40000)  0.47680000(30000)  0.25190000(30000)  0.03567
 K7  K 0.80000001  0.04500000(50000)  0.42010000(40000)  0.69400000(30000)  0.03167
 K8  K 0.81  0.22600000(50000)  0.41430000(40000)  0.55230000(30000)  0.03200
 K9  K 0.75  0.36920000(50000)  0.65370000(40000)  0.81190000(40000)  0.03267
 K10  K 0.81  0.18760000(60000)  0.57660000(50000)  0.81200000(50000)  0.05667
 K11  K 0.56999999  0.24030000(70000)  0.72140000(70000)  0.48730000(50000)  0.03767
 K12  K 0.44  0.38880000(110000)  0.40090000(80000)  0.49320000(80000)  0.05133
 K13  K 0.46000001  0.09000000(120000)  0.43270000(100000)  0.24890000(70000)  0.05300
 K14  K 0.49000001  0.21490000(120000)  0.26980000(100000)  0.06910000(80000)  0.06500
 K15  K 0.41999999  0.31720000(130000)  0.64970000(110000)  0.12760000(100000)  0.06000
 KK1  K 0.38999999  0.43940000(130000)  0.51130000(90000)  0.63240000(100000)  0.05467
 KK2  K 0.31  0.29840000(120000)  0.50530000(120000)  0.19310000(110000)  0.03900
 KK3  K 0.44  0.30170000(120000)  0.49770000(110000)  0.63790000(100000)  0.06067
 KK4  K 0.28  -0.12450000(130000)  0.47580000(120000)  0.00150000(100000)  0.04033
 O1  O 1.0  0.17870000(90000)  0.22210000(90000)  0.45900000(60000)  0.01867
 O2  O 1.0  0.14290000(80000)  0.04740000(80000)  0.41320000(70000)  .  
 O3  O 1.0  0.11640000(100000)  0.37760000(90000)  0.37940000(70000)  0.02367
 O4  O 1.0  0.02610000(110000)  0.32350000(90000)  0.28520000(80000)  0.03000
 O5  O 1.0  -0.12910000(100000)  -0.00400000(90000)  0.37740000(70000)  0.02633
 O6  O 1.0  -0.06670000(90000)  0.29430000(90000)  0.42610000(70000)  0.02200
 O7  O 1.0  0.07140000(110000)  -0.03160000(80000)  0.32670000(70000)  0.02633
 O8  O 1.0  0.30170000(100000)  0.21060000(90000)  0.25040000(70000)  0.02367
 O9  O 1.0  0.05430000(90000)  0.24140000(80000)  0.49620000(60000)  0.01600
 O10  O 1.0  -0.17550000(110000)  0.18950000(90000)  0.23810000(70000)  0.02467
 O11  O 1.0  0.19110000(130000)  0.23400000(90000)  0.16480000(80000)  0.03900
 O12  O 1.0  0.10530000(80000)  0.12630000(80000)  0.47860000(60000)  0.01233
 O13  O 1.0  -0.06930000(80000)  0.19080000(90000)  0.47860000(70000)  .  
 O14  O 1.0  0.50290000(100000)  0.28030000(80000)  0.42860000(80000)  0.02433
 O15  O 1.0  0.41730000(130000)  0.36700000(100000)  0.25200000(90000)  0.04267
 O16  O 1.0  0.30520000(100000)  0.34870000(80000)  0.27410000(70000)  0.02133
 O17  O 1.0  0.39180000(120000)  0.27070000(90000)  0.46600000(70000)  0.02967
 O18  O 1.0  0.54540000(110000)  0.14570000(100000)  0.27760000(80000)  0.02967
 O19  O 1.0  -0.02830000(90000)  0.07470000(80000)  0.45970000(60000)  0.01600
 O1W  O 1.0  0.28680000(130000)  0.64310000(120000)  0.64390000(110000)  0.04667
 O20  O 1.0  0.17590000(110000)  0.36250000(100000)  0.18410000(80000)  0.03167
 O21  O 1.0  -0.15260000(110000)  0.12970000(80000)  0.38770000(70000)  0.02633
 O22  O 1.0  0.18990000(110000)  0.27290000(90000)  0.26250000(70000)  0.02733
 O23  O 1.0  -0.06170000(130000)  0.17530000(80000)  0.20850000(70000)  0.03267
 O24  O 1.0  0.30840000(100000)  0.23310000(100000)  0.36250000(70000)  0.02367
 O25  O 1.0  0.29820000(80000)  0.31520000(90000)  0.18060000(70000)  0.01933
 O26  O 1.0  0.37840000(120000)  0.25680000(110000)  0.13440000(90000)  0.03733
 O27  O 1.0  0.38610000(110000)  0.34780000(90000)  0.37950000(80000)  0.02733
 O28  O 1.0  -0.07950000(110000)  0.33880000(80000)  0.31570000(80000)  0.02600
 O29  O 1.0  0.40800000(200000)  0.06100000(180000)  0.37110000(80000)  .  
 O2W  O 1.0  0.51630000(150000)  0.42720000(120000)  0.13430000(110000)  0.05367
 O30  O 1.0  0.63550000(120000)  0.30110000(100000)  0.41920000(90000)  0.03367
 O31  O 1.0  0.02470000(120000)  0.37240000(110000)  0.51230000(90000)  0.03867
 O32  O 1.0  0.53690000(90000)  0.07730000(130000)  0.34670000(70000)  .  
 O33  O 1.0  0.08150000(100000)  0.15240000(80000)  0.37360000(60000)  0.02000
 O34  O 1.0  -0.15540000(100000)  0.24160000(90000)  0.33360000(80000)  0.02567
 O35  O 1.0  0.62700000(100000)  0.23800000(90000)  0.24790000(80000)  0.02767
 O36  O 1.0  0.55330000(120000)  0.27020000(90000)  0.31080000(90000)  0.03367
 O37  O 1.0  0.25450000(120000)  0.33710000(90000)  0.45900000(90000)  0.03233
 O38  O 1.0  0.49170000(100000)  0.18810000(80000)  0.17820000(60000)  0.01767
 O39  O 1.0  0.49580000(100000)  0.30760000(90000)  0.20870000(80000)  0.02333
 O3W  O 1.0  0.26610000(190000)  0.52790000(140000)  0.07920000(100000)  0.06667
 O40  O 1.0  0.28820000(100000)  0.07460000(90000)  0.22740000(70000)  0.02300
 O41  O 1.0  0.00020000(80000)  0.04210000(70000)  0.37440000(60000)  .  
 O42  O 1.0  -0.01230000(90000)  0.08100000(80000)  0.27960000(60000)  0.01500
 O43  O 1.0  0.05730000(120000)  0.13300000(90000)  0.55800000(70000)  0.02767
 O44  O 1.0  -0.12110000(120000)  0.09410000(90000)  0.30810000(70000)  0.02900
 O45  O 1.0  -0.04000000(100000)  0.20900000(80000)  0.30290000(60000)  0.01900
 O46  O 1.0  0.17660000(100000)  0.14230000(70000)  0.23170000(70000)  0.01867
 O47  O 1.0  -0.02890000(100000)  0.17150000(90000)  0.39960000(70000)  0.02233
 O48  O 1.0  0.42680000(110000)  0.09310000(90000)  0.20250000(90000)  0.02933
 O49  O 1.0  0.16750000(100000)  0.10510000(90000)  0.13250000(80000)  0.02600
 O50  O 1.0  0.41540000(90000)  0.13580000(90000)  0.30350000(70000)  0.01933
 O51  O 1.0  0.12770000(110000)  0.33710000(80000)  0.47510000(70000)  0.02467
 O52  O 1.0  0.23120000(100000)  0.14160000(80000)  0.40460000(70000)  0.02267
 O53  O 1.0  0.00470000(110000)  0.28420000(90000)  0.18230000(70000)  0.02433
 O54  O 1.0  0.00030000(130000)  0.44980000(80000)  0.31440000(80000)  0.03300
 O55  O 1.0  0.07450000(110000)  0.20430000(90000)  0.26900000(70000)  0.02300
 O56  O 1.0  -0.22500000(100000)  0.31700000(90000)  0.24160000(70000)  0.02367
 O57  O 1.0  0.17690000(100000)  0.26510000(80000)  0.36520000(70000)  0.01833
 O58  O 1.0  0.29820000(100000)  0.15880000(90000)  0.15590000(80000)  0.02533
 O59  O 1.0  0.43690000(110000)  0.17170000(110000)  0.41190000(90000)  0.03967
 O5W  O 1.0  0.43200000(190000)  0.35650000(160000)  0.03200000(130000)  0.08000
 O60  O 1.0  0.13670000(100000)  0.07800000(90000)  0.31330000(60000)  .  
 O61  O 1.0  0.24810000(90000)  0.10710000(80000)  0.50520000(70000)  0.01967
 O62  O 1.0  0.28590000(100000)  0.10450000(100000)  0.32250000(70000)  0.02700
 O63  O 1.0  -0.20210000(110000)  0.24480000(100000)  0.41810000(80000)  0.03400
 O64  O 1.0  0.55220000(100000)  0.08170000(100000)  0.45410000(80000)  0.03000
 O65  O 1.0  0.30620000(120000)  -0.02430000(100000)  0.30260000(80000)  0.03267
 O66  O 1.0  -0.15390000(100000)  0.07010000(90000)  0.19930000(70000)  0.02267
 O67  O 1.0  0.55220000(110000)  0.18660000(100000)  0.38640000(90000)  0.03433
 O68  O 1.0  0.00520000(120000)  0.39070000(90000)  0.40740000(90000)  0.03533
 O69  O 1.0  -0.10160000(100000)  0.28920000(90000)  0.22390000(80000)  0.02667
 O6W  O 1.0  0.23810000(170000)  0.40620000(150000)  0.34310000(150000)  0.08533
 O70  O 1.0  0.50080000(110000)  0.36670000(100000)  0.35530000(80000)  0.03533
 O71  O 1.0  0.38200000(110000)  0.39160000(90000)  0.14230000(80000)  0.02967
 O72  O 1.0  0.37230000(120000)  0.13410000(100000)  0.09220000(80000)  0.03067
 O73  O 1.0  0.54280000(120000)  0.01010000(100000)  0.25910000(90000)  0.03400
 O74  O 1.0  0.39360000(120000)  0.45580000(90000)  0.32140000(70000)  0.03300
 O76  O 1.0  0.42090000(110000)  0.22500000(100000)  0.23380000(70000)  0.02967
 O77  O 1.0  0.04640000(90000)  0.27400000(80000)  0.38840000(70000)  0.01800
 O78  O 1.0  0.42080000(120000)  0.26270000(90000)  0.32710000(70000)  0.03333
 O79  O 1.0  0.40770000(160000)  0.02040000(100000)  0.27060000(100000)  0.08567
 O7W  O 1.0  0.34840000(170000)  0.45210000(140000)  -0.05550000(110000)  0.06033
 O8W  O 1.0  -0.11060000(160000)  0.36130000(140000)  0.06240000(100000)  0.05500
 Si1  Si 1.0  0.01650000(40000)  0.20280000(30000)  0.36630000(30000)  0.01900
 Si2  Si 1.0  0.38840000(40000)  0.20810000(30000)  0.27880000(30000)  0.01833
 W1  W 1.0  -0.12759000(6000)  0.21955000(5000)  0.40798000(4000)  0.02067
 W2  W 1.0  0.23005000(6000)  0.29944000(5000)  0.21919000(4000)  0.01870
 W3  W 1.0  0.16892000(6000)  0.30221000(5000)  0.42103000(4000)  0.01963
 W4  W 1.0  0.39077000(6000)  0.32541000(5000)  0.18503000(4000)  0.02130
 W5  W 1.0  0.54760000(6000)  0.27953000(5000)  0.38019000(4000)  0.02197
 W6  W 1.0  0.03224000(6000)  0.32631000(5000)  0.46325000(4000)  0.02147
 W7  W 1.0  0.07409000(5000)  0.05138000(5000)  0.33959000(4000)  0.01723
 W8  W 1.0  0.01387000(6000)  0.37341000(5000)  0.34062000(4000)  0.02207
 W9  W 1.0  0.02648000(6000)  0.15164000(5000)  0.49111000(4000)  0.01890
 W10  W 1.0  0.22431000(6000)  0.14425000(5000)  0.18949000(4000)  0.02057
 W11  W 1.0  -0.10193000(6000)  0.12357000(5000)  0.24822000(4000)  0.01870
 W12  W 1.0  -0.00317000(6000)  0.25092000(5000)  0.23788000(4000)  0.01950
 W13  W 1.0  0.39999000(6000)  0.37305000(5000)  0.31588000(4000)  0.02273
 W14  W 1.0  0.33898000(6000)  0.05169000(5000)  0.30128000(4000)  0.02193
 W15  W 1.0  0.18137000(6000)  0.13094000(5000)  0.44492000(4000)  0.01710
 W16  W 1.0  0.38858000(6000)  0.16561000(5000)  0.15441000(4000)  0.02443
 W17  W 1.0  0.54025000(6000)  0.23019000(5000)  0.24528000(4000)  0.02303
 W18  W 1.0  0.39624000(6000)  0.25765000(5000)  0.40339000(4000)  0.02060
 W19  W 1.0  -0.08201000(6000)  0.06894000(5000)  0.38216000(4000)  0.01820
 W20  W 1.0  0.49640000(6000)  0.11409000(5000)  0.39328000(4000)  0.02317
 W21  W 1.0  -0.14620000(6000)  0.27435000(5000)  0.27108000(4000)  0.02140
 W22  W 1.0  0.49122000(6000)  0.06812000(5000)  0.27263000(4000)  0.02387

loop_
_atom_site_aniso_label
_atom_site_aniso_U_11
_atom_site_aniso_U_22
_atom_site_aniso_U_33
_atom_site_aniso_U_23
_atom_site_aniso_U_13
_atom_site_aniso_U_12
Er1   0.02180 0.02190 0.01390 0.00320 0.00910 -0.00090
K1   0.02300 0.02100 0.02200 0.00100 0.01400 0.00600
K2   0.03500 0.02600 0.02400 -0.00200 0.01700 -0.00400
K3   0.03300 0.04100 0.02300 0.00500 0.01400 0.00700
K4   0.03200 0.03300 0.04200 0.00300 0.01700 -0.00100
K5   0.04100 0.03300 0.03700 0.00200 0.01700 -0.00500
K6   0.04200 0.02600 0.03900 0.00200 0.02300 0.00000
K7   0.03300 0.02700 0.03500 0.00800 0.01900 0.01100
K8   0.04100 0.02900 0.02600 -0.00700 0.00800 -0.00100
K9   0.02300 0.03600 0.03900 0.01700 0.01100 0.00100
K10   0.04400 0.05400 0.07200 0.02800 0.04600 0.01400
K11   0.03600 0.04700 0.03000 0.00500 0.00200 -0.00600
K12   0.05800 0.04000 0.05600 -0.01100 0.04700 -0.02100
K13   0.06900 0.06400 0.02600 -0.00500 0.01400 0.01100
K14   0.08100 0.07000 0.04400 0.00500 0.03300 -0.00700
K15   0.05500 0.05200 0.07300 -0.00700 0.02500 0.00600
KK1   0.07100 0.02700 0.06600 -0.01200 0.03700 -0.01700
KK2   0.01900 0.04900 0.04900 0.01400 0.00900 -0.00200
KK3   0.04700 0.06300 0.07200 0.00500 0.01700 -0.00200
KK4   0.03500 0.04900 0.03700 -0.02200 0.03000 -0.00600
O1   0.00900 0.03400 0.01300 0.00500 0.00700 0.00100
O3   0.02200 0.02300 0.02600 0.01100 0.00800 0.00500
O4   0.03400 0.02300 0.03300 0.00500 0.01300 0.00400
O5   0.03100 0.03300 0.01500 0.00700 0.02100 0.00400
O6   0.01300 0.02500 0.02800 0.00200 0.01300 -0.00400
O7   0.04600 0.01500 0.01800 0.00100 0.02000 0.00900
O8   0.01800 0.03400 0.01900 -0.00900 0.01400 -0.00100
O9   0.01400 0.02100 0.01300 -0.00400 0.00300 0.00100
O10   0.03000 0.02700 0.01700 0.00400 0.00700 0.00300
O11   0.07200 0.01400 0.03100 0.00900 0.03500 -0.00500
O12   0.00200 0.01600 0.01900 -0.00700 0.00000 -0.00400
O14   0.02300 0.01900 0.03100 0.00500 0.02000 0.00300
O15   0.05500 0.03200 0.04100 -0.01400 0.02400 -0.00700
O16   0.02000 0.02600 0.01800 0.00100 0.01300 -0.00500
O17   0.04100 0.03000 0.01800 0.00200 0.01100 0.00300
O18   0.03400 0.03200 0.02300 0.01100 0.00400 0.00300
O19   0.01100 0.02200 0.01500 0.00300 0.00500 -0.00700
O1W   0.03400 0.04500 0.06100 0.02800 0.01000 0.02300
O20   0.03700 0.03700 0.02100 -0.00100 0.01600 0.00700
O21   0.03800 0.01600 0.02500 -0.00100 0.01700 -0.00400
O22   0.03900 0.03500 0.00800 0.00000 0.00500 -0.01600
O23   0.06700 0.01000 0.02100 0.00700 0.02600 0.00900
O24   0.02100 0.04200 0.00800 0.00700 0.00600 -0.00700
O25   0.00200 0.03500 0.02100 -0.00700 0.00000 -0.00400
O26   0.03200 0.04900 0.03100 0.00100 0.01500 0.00500
O27   0.03000 0.02600 0.02600 0.01000 0.01400 0.00400
O28   0.03000 0.00900 0.03900 0.00200 0.01000 0.00000
O2W   0.05200 0.04900 0.06000 -0.00400 0.02700 -0.00200
O30   0.03300 0.03200 0.03600 -0.00300 0.00800 -0.00100
O31   0.03700 0.03900 0.04000 -0.01100 0.02200 -0.00100
O33   0.02600 0.02400 0.01000 0.00200 0.00900 0.00700
O34   0.01800 0.03200 0.02700 0.00600 0.00500 0.01000
O35   0.02500 0.03100 0.02700 0.00000 0.01800 -0.00400
O36   0.03400 0.02300 0.04400 -0.00700 0.01400 -0.01000
O37   0.03800 0.01600 0.04300 -0.00300 0.00900 0.00200
O38   0.03200 0.01500 0.00600 -0.00100 0.00400 -0.00300
O39   0.02200 0.02300 0.02500 0.00300 -0.00100 0.00600
O3W   0.11000 0.05900 0.03100 0.01000 0.02200 0.04600
O40   0.02300 0.02300 0.02300 0.00700 0.00900 0.01300
O42   0.01100 0.01900 0.01500 -0.00200 0.00700 0.00000
O43   0.04900 0.02300 0.01100 0.01100 0.00500 -0.00200
O44   0.05400 0.01600 0.01700 0.00400 0.01300 0.00200
O45   0.03400 0.01200 0.01100 0.00500 0.00900 0.00600
O46   0.02500 0.00800 0.02300 -0.00700 0.01400 -0.00400
O47   0.02500 0.03500 0.00700 0.00400 0.00500 0.00900
O48   0.02500 0.02600 0.03700 -0.00600 -0.00300 -0.00100
O49   0.02100 0.02800 0.02900 0.00300 0.00900 0.00000
O50   0.01100 0.03200 0.01500 0.00100 -0.00500 0.00500
O51   0.03700 0.01300 0.02400 -0.00300 0.01200 -0.00200
O52   0.03400 0.01400 0.02000 -0.00100 0.01500 0.00100
O53   0.03900 0.02100 0.01300 0.00200 0.00000 -0.01100
O54   0.06700 0.00800 0.02400 0.00500 0.01200 0.00400
O55   0.03200 0.02200 0.01500 0.00600 0.00800 0.00300
O56   0.02000 0.03000 0.02100 0.00500 0.00500 0.02200
O57   0.02300 0.00900 0.02300 0.00600 0.00600 0.00400
O58   0.01600 0.03200 0.02800 0.01100 0.01700 0.00700
O59   0.02300 0.06000 0.03600 -0.00600 0.02200 -0.00800
O5W   0.09000 0.08000 0.07000 -0.02200 0.04900 -0.02800
O61   0.01300 0.02700 0.01900 -0.01100 0.01200 -0.00700
O62   0.02000 0.04100 0.02000 0.01000 0.00800 0.00600
O63   0.03400 0.04000 0.02800 -0.00700 0.02800 0.00200
O64   0.01400 0.04700 0.02900 0.01400 0.00800 0.00400
O65   0.03900 0.03600 0.02300 0.01000 0.01100 -0.00500
O66   0.03000 0.03000 0.00800 0.00000 0.00100 0.00100
O67   0.02100 0.03600 0.04600 0.01200 0.02000 0.00600
O68   0.04900 0.01700 0.04000 0.00600 0.02300 0.01800
O69   0.01400 0.02700 0.03900 0.00400 0.01200 -0.01500
O6W   0.07000 0.06600 0.12000 0.07000 0.06000 0.02500
O70   0.02200 0.04800 0.03600 0.01800 0.02100 0.00100
O71   0.03200 0.02700 0.03000 0.00600 0.00900 0.00400
O72   0.03800 0.03700 0.01700 0.00100 0.00800 -0.00400
O73   0.03300 0.03100 0.03800 -0.00100 -0.00500 -0.00400
O74   0.05800 0.02300 0.01800 0.00000 0.01800 0.00900
O76   0.03700 0.04400 0.00800 -0.00300 0.00400 0.00100
O77   0.01700 0.02000 0.01700 0.00300 0.00200 -0.00300
O78   0.05500 0.02900 0.01600 -0.00500 0.02300 -0.01900
O79   0.13000 0.04000 0.08700 -0.06400 0.11300 -0.07500
O7W   0.07000 0.07200 0.03900 -0.01700 0.01400 -0.03100
O8W   0.07000 0.06100 0.03400 -0.00100 0.00400 0.00400
Si1   0.01200 0.02500 0.02000 0.00200 0.01000 -0.00100
Si2   0.02000 0.01800 0.01700 0.00300 0.01200 -0.00100
W1   0.02060 0.02000 0.02140 0.00090 0.01200 0.00180
W2   0.02260 0.01910 0.01440 0.00300 0.00800 0.00310
W3   0.02220 0.01920 0.01750 0.00040 0.00960 -0.00230
W4   0.02200 0.02350 0.01840 0.00620 0.01100 0.00140
W5   0.02060 0.02580 0.01950 0.00070 0.00820 -0.00210
W6   0.02620 0.01840 0.01980 -0.00150 0.01190 -0.00040
W7   0.02010 0.01660 0.01500 0.00080 0.00940 0.00080
W8   0.02690 0.01700 0.02230 0.00320 0.01060 0.00220
W9   0.02160 0.01980 0.01530 0.00140 0.01080 0.00090
W10   0.02280 0.02410 0.01480 -0.00030 0.00890 -0.00380
W11   0.01990 0.02070 0.01550 0.00180 0.00720 -0.00050
W12   0.02290 0.02000 0.01560 0.00450 0.00810 0.00090
W13   0.02300 0.01900 0.02620 0.00070 0.01200 -0.00120
W14   0.02410 0.01980 0.02190 0.00350 0.01210 0.00140
W15   0.01910 0.01920 0.01300 0.00220 0.00800 0.00090
W16   0.02620 0.03110 0.01600 0.00110 0.01180 -0.00010
W17   0.02110 0.02750 0.02050 0.00370 0.01140 0.00030
W18   0.02160 0.02620 0.01400 0.00100 0.00800 -0.00130
W19   0.01940 0.01700 0.01820 0.00110 0.01070 0.00040
W20   0.02420 0.02600 0.01930 0.00590 0.00960 0.00470
W21   0.02170 0.02090 0.02160 0.00500 0.00870 0.00330
W22   0.02620 0.02240 0.02300 0.00140 0.00840 0.00340
