data_s
_audit_creation_method         'generated by CrystalMaker X for macOS'
_cell_length_a                  20.196000(40)
_cell_length_b                  20.522000(40)
_cell_length_c                  26.566000(50)
_cell_angle_alpha               90.000000(0)
_cell_angle_beta               110.290000(300)
_cell_angle_gamma               90.000000(0)

_symmetry_space_group_name_H-M     'P 21/n'

loop_
_symmetry_equiv_pos_as_xyz
'+x,+y,+z'
'1/2-x,1/2+y,1/2-z'
'-x,-y,-z'
'1/2+x,1/2-y,1/2+z'

loop_
_atom_site_label
_atom_site_type_symbol
_atom_site_occupancy
_atom_site_fract_x
_atom_site_fract_y
_atom_site_fract_z
_atom_site_U_iso_or_equiv
 K1  K 1.0  2.38300000(30000)  1.09780000(30000)  -0.64190000(20000)  0.02167
 K2  K 1.0  2.38920000(30000)  0.90300000(30000)  -0.40430000(20000)  0.02400
 K3  K 1.0  2.20400000(30000)  0.76790000(30000)  -0.46920000(20000)  0.02733
 K4  K 1.0  1.81660000(40000)  1.03080000(30000)  -0.55440000(30000)  0.04000
 K5  K 1.0  2.03170000(40000)  0.52170000(30000)  -0.74660000(30000)  0.03767
 K6  K 1.0  2.56060000(40000)  0.85790000(30000)  -0.71120000(30000)  0.03900
 K7  K 1.0  1.82720000(50000)  0.91400000(40000)  -0.94610000(30000)  0.04667
 K8  K 0.52  1.55750000(60000)  0.65300000(50000)  -0.81140000(50000)  0.02267
 K9  K 0.58  2.14820000(50000)  0.92140000(40000)  -0.80630000(40000)  0.02300
 K10  K 0.59  2.37620000(60000)  0.57790000(60000)  -0.81440000(60000)  0.04700
 K11  K 0.7  2.10760000(80000)  0.59930000(70000)  -0.50760000(70000)  0.06867
 K12  K 0.57  1.75360000(100000)  0.72040000(90000)  -0.48780000(70000)  0.06233
 K13  K 0.44  2.62810000(110000)  0.97490000(90000)  -0.49860000(100000)  0.05967
 O12  O 1.0  2.28210000(110000)  0.77890000(80000)  -0.53810000(70000)  0.02300
 O13  O 1.0  2.27230000(80000)  0.95190000(70000)  -0.58500000(60000)  .  
 O14  O 1.0  2.25840000(90000)  0.89310000(90000)  -0.49350000(70000)  0.02200
 O16  O 1.0  2.44340000(90000)  0.75870000(70000)  -0.50630000(70000)  .  
 O17  O 1.0  2.17200000(100000)  0.85680000(80000)  -0.59420000(70000)  .  
 O18  O 1.0  1.97050000(110000)  0.89420000(100000)  -0.86340000(80000)  0.02933
 O19  O 1.0  2.05430000(160000)  0.97590000(80000)  -0.90740000(80000)  .  
 O20  O 1.0  1.90330000(100000)  0.91870000(120000)  -0.54490000(90000)  .  
 O21  O 1.0  2.05330000(90000)  0.85900000(70000)  -0.76850000(70000)  .  
 O22  O 1.0  2.48840000(90000)  0.92490000(80000)  -0.54150000(60000)  0.01733
 O23  O 1.0  2.50480000(100000)  0.86670000(80000)  -0.44040000(70000)  0.02000
 O24  O 1.0  2.26960000(90000)  0.82310000(80000)  -0.79370000(60000)  .  
 O25  O 1.0  2.17550000(110000)  0.71550000(80000)  -0.81860000(80000)  0.02800
 O26  O 1.0  2.54760000(80000)  0.81160000(90000)  -0.52180000(80000)  .  
 O27  O 1.0  2.25510000(90000)  1.03020000(80000)  -0.67410000(80000)  0.02133
 O28  O 1.0  2.40320000(90000)  0.60800000(80000)  -0.59160000(80000)  0.02233
 O29  O 1.0  1.92880000(110000)  0.54180000(90000)  -0.67710000(80000)  0.03067
 O30  O 1.0  2.01200000(100000)  0.63730000(80000)  -0.81590000(60000)  .  
 O31  O 1.0  2.35060000(110000)  0.93090000(110000)  -0.80030000(70000)  0.03100
 O32  O 1.0  2.29000000(110000)  0.91800000(90000)  -0.72230000(70000)  0.02400
 O33  O 1.0  2.31530000(120000)  0.54750000(90000)  -0.68520000(90000)  0.03933
 O34  O 1.0  2.19090000(110000)  0.73200000(90000)  -0.63280000(90000)  0.03200
 O36  O 1.0  2.50510000(90000)  1.00240000(90000)  -0.62160000(80000)  .  
 O37  O 1.0  1.92440000(100000)  0.71660000(100000)  -0.57080000(80000)  0.02900
 O38  O 1.0  2.49260000(100000)  0.62810000(90000)  -0.48510000(90000)  .  
 O39  O 1.0  2.61990000(100000)  0.75410000(100000)  -0.58280000(80000)  0.03000
 O40  O 1.0  2.46550000(120000)  0.68300000(110000)  -0.75810000(80000)  0.03567
 O41  O 1.0  2.37420000(80000)  0.95920000(90000)  -0.62770000(80000)  .  
 O42  O 1.0  2.37260000(100000)  0.87710000(80000)  -0.52110000(70000)  0.02000
 O43  O 1.0  1.71810000(100000)  0.86670000(120000)  -0.90820000(80000)  0.03600
 O44  O 1.0  1.97670000(110000)  0.82970000(90000)  -0.58800000(90000)  0.03000
 O45  O 1.0  2.42950000(110000)  0.90570000(90000)  -0.69300000(80000)  0.02633
 O46  O 1.0  2.53910000(110000)  0.87030000(100000)  -0.61190000(100000)  0.03733
 O47  O 1.0  2.39580000(110000)  0.66070000(80000)  -0.68360000(90000)  .  
 O48  O 1.0  1.97350000(110000)  0.76410000(90000)  -0.83260000(70000)  .  
 O49  O 1.0  1.75780000(100000)  0.74150000(90000)  -0.86540000(80000)  0.02733
 O50  O 1.0  2.15870000(120000)  0.56530000(100000)  -0.75240000(80000)  0.03467
 O51  O 1.0  2.20710000(110000)  0.65960000(100000)  -0.54090000(90000)  0.03500
 O52  O 1.0  2.68970000(120000)  0.85090000(110000)  -0.62870000(100000)  0.04200
 O53  O 1.0  2.19540000(90000)  0.79480000(90000)  -0.73200000(70000)  0.02333
 O54  O 1.0  1.97200000(200000)  0.93000000(200000)  -0.62850000(80000)  .  
 O56  O 1.0  1.71520000(140000)  0.68820000(100000)  -0.79030000(80000)  0.03867
 O57  O 1.0  1.81320000(90000)  0.91540000(150000)  -0.65390000(70000)  .  
 O58  O 1.0  2.07550000(100000)  0.72670000(90000)  -0.53400000(90000)  0.03100
 O59  O 1.0  1.68820000(110000)  0.81030000(100000)  -0.82320000(80000)  0.03000
 O60  O 1.0  1.83530000(100000)  0.81480000(100000)  -0.61450000(90000)  0.03233
 O61  O 1.0  2.26530000(160000)  0.62030000(90000)  -0.62060000(80000)  0.04533
 O62  O 1.0  2.41210000(110000)  0.81020000(90000)  -0.76220000(80000)  0.02900
 O63  O 1.0  2.26020000(110000)  0.67310000(90000)  -0.71420000(70000)  0.02700
 O64  O 1.0  2.48900000(90000)  0.75900000(70000)  -0.66540000(70000)  0.01733
 O65  O 1.0  1.62210000(100000)  0.75950000(100000)  -0.75350000(90000)  0.03300
 O66  O 1.0  1.76220000(100000)  0.60810000(120000)  -0.85780000(90000)  0.03900
 O67  O 1.0  1.99430000(90000)  0.65070000(80000)  -0.61820000(90000)  0.02600
 O69  O 1.0  2.35070000(110000)  0.66130000(80000)  -0.52570000(80000)  0.02567
 O70  O 1.0  1.86700000(90000)  0.97270000(90000)  -0.73450000(120000)  0.06300
 O71  O 1.0  2.17580000(100000)  0.91720000(90000)  -0.68560000(80000)  0.02633
 O72  O 1.0  1.85700000(90000)  0.83940000(90000)  -0.84330000(70000)  0.01967
 O74  O 1.0  2.34250000(90000)  0.72230000(70000)  -0.61240000(70000)  .  
 O75  O 1.0  1.99770000(120000)  1.02450000(120000)  -0.69450000(100000)  0.04533
 O76  O 1.0  2.42950000(90000)  0.82740000(80000)  -0.59980000(60000)  .  
 O77  O 1.0  1.73580000(110000)  0.85120000(90000)  -0.72260000(80000)  0.02800
 O78  O 1.0  2.03650000(110000)  0.89630000(80000)  -0.67400000(80000)  .  
 O79  O 1.0  2.31500000(140000)  1.02220000(130000)  -0.41720000(130000)  0.06033
 O80  O 1.0  1.97090000(110000)  0.64930000(90000)  -0.72400000(80000)  0.02700
 O82  O 1.0  2.05300000(100000)  0.76500000(100000)  -0.63580000(80000)  0.02767
 O83  O 1.0  2.34510000(100000)  0.79020000(80000)  -0.69810000(70000)  0.01967
 O84  O 1.0  1.88390000(130000)  0.68040000(140000)  -0.81910000(90000)  0.05100
 O85  O 1.0  1.88640000(100000)  0.86100000(90000)  -0.69570000(80000)  0.02567
 O86  O 1.0  2.35760000(110000)  0.77160000(120000)  -0.43000000(80000)  0.03600
 O87  O 1.0  1.87780000(190000)  1.07360000(130000)  -0.62960000(120000)  0.07633
 O89  O 1.0  2.49460000(100000)  0.70460000(90000)  -0.57340000(90000)  0.03000
 O90  O 1.0  2.32710000(100000)  0.70620000(100000)  -0.77300000(90000)  0.03133
 O92  O 1.0  1.75860000(100000)  0.72880000(90000)  -0.68860000(80000)  0.02767
 O93  O 1.0  2.07370000(100000)  0.72700000(90000)  -0.73480000(70000)  0.02400
 O94  O 1.0  1.78490000(120000)  0.69860000(110000)  -0.57770000(100000)  0.04033
 O95  O 1.0  2.11200000(110000)  0.59080000(130000)  -0.65390000(110000)  .  
 O97  O 1.0  1.90230000(160000)  1.05260000(150000)  -0.44610000(110000)  0.06600
 O98  O 1.0  2.29300000(90000)  0.84870000(80000)  -0.62700000(70000)  0.01600
 O99  O 1.0  1.81540000(90000)  0.77280000(110000)  -0.76600000(80000)  0.03000
 O100  O 1.0  1.95020000(100000)  0.78630000(80000)  -0.74910000(80000)  0.02467
 O101  O 1.0  1.90820000(90000)  0.73950000(90000)  -0.67140000(70000)  .  
 O102  O 1.0  1.83510000(110000)  0.63180000(90000)  -0.74480000(90000)  0.03300
 O104  O 1.0  2.07070000(190000)  0.79100000(200000)  -0.88920000(120000)  .  
 O105  O 1.0  1.72000000(300000)  0.99400000(200000)  -0.99100000(300000)  0.19000
 O106  O 1.0  1.77930000(160000)  0.90300000(110000)  -0.79700000(80000)  0.04933
 O107  O 1.0  1.71750000(120000)  0.99080000(140000)  -0.74080000(90000)  .  
 O108  O 1.0  1.93800000(100000)  0.92610000(100000)  -0.77100000(90000)  0.03300
 O109  O 1.0  1.92000000(300000)  1.01200000(200000)  -0.96600000(200000)  0.18000
 O110  O 1.0  1.85600000(110000)  0.63580000(100000)  -0.64430000(130000)  0.05267
 O111  O 1.0  2.50820000(180000)  0.91630000(150000)  -0.80650000(110000)  0.07000
 O112  O 1.0  2.10200000(200000)  0.85100000(500000)  -0.46800000(500000)  0.51000
 O113  O 1.0  1.89190000(140000)  0.49230000(120000)  -0.80520000(110000)  0.05167
 O114  O 1.0  1.84120000(150000)  0.99780000(140000)  -0.85540000(130000)  0.06933
 O115  O 1.0  1.79600000(300000)  0.80200000(200000)  -0.38660000(140000)  0.12000
 O120  O 1.0  1.79500000(300000)  0.84020000(170000)  -0.50470000(170000)  0.13000
 O121  O 1.0  2.45600000(600000)  0.52500000(200000)  -0.70700000(400000)  .  
 O122  O 1.0  2.31900000(300000)  0.54800000(200000)  -0.93700000(300000)  0.20667
 O130  O 1.0  1.43000000(190000)  0.67200000(200000)  -0.88980000(170000)  0.12333
 O133  O 1.0  1.64500000(300000)  0.58900000(900000)  -0.46000000(200000)  0.53667
 O136  O 1.0  1.69900000(500000)  0.61400000(200000)  -0.53000000(300000)  .  
 O142  O 1.0  1.68800000(400000)  0.59940000(160000)  -0.72080000(170000)  .  
 O151  O 1.0  1.59600000(800000)  0.62400000(800000)  -0.76700000(900000)  .  
 Si1  Si 1.0  1.89050000(40000)  0.79120000(30000)  -0.72060000(30000)  0.01600
 Si2  Si 1.0  2.34880000(40000)  0.79700000(30000)  -0.63320000(30000)  0.01800
 Tm1  Tm 1.0  2.11918000(6000)  0.81804000(6000)  -0.68218000(4000)  0.01850
 W1  W 1.0  1.76658000(6000)  0.83299000(6000)  -0.84495000(4000)  0.02317
 W2  W 1.0  1.70600000(6000)  0.76858000(6000)  -0.75392000(5000)  0.02373
 W3  W 1.0  1.91692000(6000)  0.62572000(5000)  -0.68307000(5000)  0.02397
 W4  W 1.0  1.96613000(6000)  0.85458000(5000)  -0.80964000(4000)  0.02000
 W5  W 1.0  1.89753000(6000)  0.88498000(6000)  -0.60561000(5000)  0.02527
 W6  W 1.0  1.79493000(6000)  0.67318000(5000)  -0.81418000(4000)  0.02163
 W7  W 1.0  1.83379000(6000)  0.71919000(5000)  -0.61866000(5000)  0.02390
 W8  W 1.0  2.00836000(6000)  0.74137000(5000)  -0.59535000(4000)  0.02103
 W9  W 1.0  1.78251000(6000)  0.93091000(5000)  -0.72669000(5000)  0.02623
 W10  W 1.0  1.96327000(6000)  0.94714000(5000)  -0.69758000(5000)  0.02260
 W11  W 1.0  1.99019000(6000)  0.69930000(5000)  -0.77974000(4000)  0.01873
 W12  W 1.0  2.24079000(6000)  0.74758000(5000)  -0.76156000(4000)  0.01957
 W14  W 1.0  2.41712000(6000)  0.72461000(5000)  -0.72886000(5000)  0.02300
 W15  W 1.0  2.43217000(6000)  0.67307000(5000)  -0.53599000(5000)  0.02147
 W16  W 1.0  2.25307000(6000)  0.69673000(5000)  -0.57795000(4000)  0.02067
 W17  W 1.0  2.53596000(5000)  0.77999000(5000)  -0.59179000(4000)  0.01997
 W18  W 1.0  2.46524000(5000)  0.84818000(5000)  -0.50848000(4000)  0.01697
 W19  W 1.0  2.26415000(5000)  0.86827000(5000)  -0.55452000(4000)  0.01703
 W20  W 1.0  2.34941000(6000)  0.87530000(5000)  -0.75197000(4000)  0.01940
 W21  W 1.0  2.46381000(5000)  0.93048000(5000)  -0.61810000(4000)  0.01697
 W22  W 1.0  2.26512000(5000)  0.94742000(5000)  -0.66038000(4000)  0.01590
 W23  W 1.0  2.32755000(6000)  0.62531000(5000)  -0.65853000(5000)  0.02343

loop_
_atom_site_aniso_label
_atom_site_aniso_U_11
_atom_site_aniso_U_22
_atom_site_aniso_U_33
_atom_site_aniso_U_23
_atom_site_aniso_U_13
_atom_site_aniso_U_12
K1   0.02600 0.02100 0.01800 0.00200 0.00900 -0.00100
K2   0.02900 0.01700 0.02600 -0.00300 0.00300 -0.00100
K3   0.02800 0.03600 0.01800 0.00400 0.00100 -0.00400
K4   0.04100 0.03200 0.04700 0.00500 0.01000 0.01300
K5   0.04000 0.02600 0.04700 -0.00100 0.01400 -0.00100
K6   0.04200 0.03100 0.04400 -0.00200 0.02000 0.00200
K7   0.06300 0.04200 0.03500 0.00000 0.01600 0.00000
K8   0.02300 0.02200 0.02300 -0.01300 0.01600 -0.00700
K9   0.02400 0.01000 0.03500 0.00600 0.00400 -0.00400
K10   0.02200 0.03300 0.08600 -0.02900 0.01300 -0.01000
K11   0.06500 0.05000 0.09100 -0.00200 -0.01200 -0.02000
K12   0.06400 0.07500 0.04800 -0.01300 0.02600 -0.01900
K13   0.05700 0.03200 0.09000 -0.01000 -0.01500 -0.01800
O12   0.04000 0.01000 0.01900 -0.00800 0.00700 0.00100
O14   0.01100 0.03500 0.02000 -0.02100 0.00400 -0.00500
O18   0.03600 0.02800 0.02400 -0.00700 0.02200 0.01100
O22   0.02600 0.01700 0.00900 -0.00400 -0.00100 0.00400
O23   0.02800 0.01900 0.01300 -0.00800 -0.00100 -0.00300
O25   0.03600 0.00600 0.04200 -0.00100 0.01600 0.00100
O27   0.02400 0.00700 0.03300 0.01400 0.00300 0.00000
O28   0.02400 0.00700 0.03600 0.00700 0.02700 0.00100
O29   0.04300 0.02000 0.02900 -0.00300 -0.00900 0.01400
O31   0.03700 0.04700 0.00900 0.00600 -0.00300 -0.01500
O32   0.04500 0.01800 0.00900 0.01100 -0.00100 -0.01300
O33   0.05000 0.01900 0.04900 -0.01400 0.03700 -0.01300
O34   0.03300 0.01900 0.04400 -0.02000 0.01400 -0.00800
O37   0.02700 0.03600 0.02400 0.00300 0.01400 -0.00100
O39   0.01800 0.04400 0.02800 0.00300 0.00400 0.00000
O40   0.04500 0.04200 0.02000 0.00100 0.02400 0.01100
O42   0.03100 0.01300 0.01600 0.00500 0.00100 -0.00700
O43   0.01500 0.06600 0.02700 -0.00200 0.00400 0.00400
O44   0.03200 0.02000 0.03800 -0.00500 0.00300 0.00000
O45   0.04100 0.01700 0.02100 -0.00100 0.00100 -0.00600
O46   0.02900 0.03000 0.05300 0.00600 0.00600 -0.00700
O49   0.02800 0.02800 0.02600 -0.00600 0.01300 0.00700
O50   0.04500 0.04000 0.01900 0.00600 0.02300 -0.01800
O51   0.03600 0.02500 0.04400 -0.01300 0.00800 0.00400
O52   0.03500 0.04100 0.05000 -0.00600 0.02900 -0.00900
O53   0.02000 0.02900 0.02100 -0.00800 0.02000 -0.01100
O56   0.07100 0.02700 0.01800 -0.00200 -0.01400 0.01600
O58   0.02600 0.02100 0.04600 -0.00300 0.00600 0.00600
O59   0.03200 0.03500 0.02300 0.01000 -0.01000 -0.00100
O60   0.02500 0.03800 0.03400 0.00100 0.01700 -0.00200
O61   0.10000 0.00900 0.02700 0.00300 -0.03300 0.01500
O62   0.03800 0.01300 0.03600 -0.00200 -0.00200 -0.00500
O63   0.03600 0.02800 0.01700 0.00600 0.01000 0.00800
O64   0.02300 0.00700 0.02200 -0.00300 0.00900 0.00300
O65   0.02300 0.03500 0.04100 -0.01600 -0.01000 0.00100
O66   0.01700 0.06400 0.03600 0.01500 -0.00100 -0.01300
O67   0.01900 0.00700 0.05200 0.00400 -0.01500 -0.00200
O69   0.03700 0.00400 0.03600 0.00600 -0.00500 -0.01000
O70   0.01500 0.02400 0.15000 0.07700 -0.06400 -0.02500
O71   0.02500 0.02100 0.03300 -0.00400 -0.00100 -0.00500
O72   0.02000 0.02400 0.01500 -0.01300 -0.00300 0.00300
O75   0.03800 0.05300 0.04500 0.00400 0.01100 -0.01900
O77   0.03300 0.01900 0.03200 0.00100 0.00600 -0.00800
O79   0.05000 0.04100 0.09000 -0.03000 0.00400 -0.01900
O80   0.03400 0.01600 0.03100 0.00400 0.01200 0.00600
O82   0.02100 0.03300 0.02900 0.00200 -0.01100 -0.00500
O83   0.02900 0.01500 0.01500 -0.00400 -0.00100 0.00300
O84   0.05000 0.06400 0.03900 0.02000 -0.02400 -0.01200
O85   0.02700 0.02400 0.02600 0.00200 0.01900 0.00600
O86   0.03200 0.06300 0.01300 0.00700 -0.01100 0.01600
O87   0.12000 0.04100 0.06800 0.01600 0.01300 0.06400
O89   0.02900 0.01000 0.05100 0.01500 -0.01800 0.00000
O90   0.01700 0.03500 0.04200 -0.03600 0.00800 -0.00900
O92   0.02900 0.02700 0.02700 -0.01300 0.01600 -0.00800
O93   0.03100 0.02300 0.01800 0.00500 -0.00600 0.00700
O94   0.03000 0.03300 0.05800 0.00000 0.01300 0.00600
O97   0.07000 0.06900 0.05900 -0.00900 0.00800 0.04900
O98   0.01400 0.01400 0.02000 0.00000 -0.00600 -0.00100
O99   0.01400 0.04400 0.03200 0.00300 -0.00500 0.00100
O100   0.02200 0.00900 0.04300 0.00200 0.00500 0.00200
O102   0.03000 0.02000 0.04900 -0.00500 0.01600 -0.00600
O105   0.14000 0.07000 0.36000 0.08000 0.02000 0.04000
O106   0.10000 0.03700 0.01100 -0.00800 0.00700 0.03900
O108   0.02500 0.03100 0.04300 -0.01500 0.01700 0.01400
O109   0.19000 0.14000 0.21000 0.07000 0.18000 0.06000
O110   0.02200 0.01600 0.12000 -0.00100 -0.00900 0.00000
O111   0.09000 0.07000 0.05000 0.01900 0.02300 -0.00100
O112   0.05000 0.58000 0.90000 -0.71000 -0.09000 0.06000
O113   0.05200 0.03300 0.07000 -0.00800 0.00200 -0.02300
O114   0.04700 0.06100 0.10000 -0.03700 0.01400 0.01200
O115   0.19000 0.12000 0.05000 0.01000 0.01000 0.10000
O120   0.23000 0.05000 0.11000 -0.02000 0.10000 0.02000
O122   0.17000 0.08000 0.37000 0.03000 0.12000 -0.08000
O130   0.06000 0.18000 0.13000 0.05000 -0.02000 -0.05000
O133   0.16000 1.40000 0.05000 0.13000 0.00000 -0.24000
Si1   0.02400 0.01600 0.00800 -0.00600 0.00900 -0.00100
Si2   0.02300 0.01000 0.02100 0.00300 0.00600 -0.00400
Tm1   0.02190 0.01770 0.01590 -0.00420 0.00520 -0.00360
W1   0.02340 0.02870 0.01740 -0.00320 0.00410 -0.00080
W2   0.02210 0.02640 0.02270 -0.00610 0.00870 -0.00290
W3   0.02680 0.01600 0.02910 -0.00240 0.01240 -0.00230
W4   0.02270 0.02110 0.01620 -0.00130 0.00520 -0.00260
W5   0.02710 0.02540 0.02330 -0.00830 0.00860 0.00030
W6   0.02190 0.02270 0.02030 -0.00900 0.00590 -0.00430
W7   0.02560 0.02400 0.02210 -0.00280 0.01080 -0.00300
W8   0.02290 0.02330 0.01690 -0.00210 0.00550 -0.00180
W9   0.03230 0.02160 0.02480 -0.00230 0.01240 0.00220
W10   0.02540 0.01760 0.02480 -0.00570 0.00850 -0.00170
W11   0.02420 0.01590 0.01610 -0.00500 0.00610 0.00040
W12   0.02510 0.01680 0.01680 -0.00500 0.00730 -0.00250
W14   0.02690 0.01770 0.02440 -0.00480 0.01200 -0.00020
W15   0.02740 0.01460 0.02240 0.00200 0.00630 -0.00030
W16   0.02530 0.01610 0.02060 -0.00130 0.00780 -0.00370
W17   0.02100 0.01490 0.02400 0.00090 0.00800 0.00190
W18   0.01910 0.01600 0.01580 -0.00080 0.00310 -0.00060
W19   0.02020 0.01590 0.01500 -0.00330 0.00400 -0.00110
W20   0.02520 0.01670 0.01630 -0.00070 0.00770 -0.00100
W21   0.01940 0.01230 0.01920 -0.00040 0.00550 -0.00060
W22   0.01830 0.01310 0.01630 -0.00070 0.00370 0.00060
W23   0.03110 0.01320 0.02600 -0.00310 0.01110 -0.00190
